
Spectre (R) Circuit Simulator
Version 17.1.0.433.isr9 64bit -- 5 Nov 2018
Copyright (C) 1989-2018 Cadence Design Systems, Inc. All rights reserved worldwide. Cadence and Spectre are registered trademarks of Cadence Design Systems, Inc. All others are the property of their respective holders.

Includes RSA BSAFE(R) Cryptographic or Security Protocol Software from RSA Security, Inc.

User: ykhuang   Host: s2424   HostID: ED824314   PID: 13148
Memory  available: 52.4933 GB  physical: 67.2863 GB
Linux   : CentOS Linux release 7.9.2009 (Core)
CPU Type: Intel(R) Xeon(R) CPU E5-2630 v3 @ 2.40GHz
        Socket: Processors [Frequency] (Hyperthreaded Processor)
        0:       0 [1389.3] ( 16 ),  1 [2684.6] ( 17 ),  2 [2682.9] ( 18 )
                 3 [1395.0] ( 19 ),  4 [2686.5] ( 20 ),  5 [1863.0] ( 21 )
                 6 [2671.9] ( 22 ),  7 [1400.0] ( 23 )
        1:       8 [2600.0] ( 24 ),  9 [2599.8] ( 25 ), 10 [2599.8] ( 26 )
                11 [1595.1] ( 27 ), 12 [2599.8] ( 28 ), 13 [2599.8] ( 29 )
                14 [1597.9] ( 30 ), 15 [2600.1] ( 31 )
        
System load averages (1min, 5min, 15min) : 6.7 %, 6.0 %, 4.3 %
Hyperthreading is enabled


Simulating `/home/ykhuang/research/Sim/TB_ADC_EMG/ams/config/netlist/.mapi//xcelium.d/AMSD/ams_spice_in/./.amsspice_pre.ckt' on s2424 at 7:54:39 PM, Wed Feb 17, 2021 (process id: 13148).
Current working directory: /home/ykhuang/research/Sim/TB_ADC_EMG/ams/config/netlist
Environment variable:
    SPECTRE_DEFAULTS=
Command line:
    amsprimtool  \
        /home/ykhuang/research/Sim/TB_ADC_EMG/ams/config/netlist/.mapi//xcelium.d/AMSD/ams_spice_in/./.amsspice_pre.ckt  \
        -noraw -va,amsspice_pre -ahdllibdir  \
        /home/ykhuang/research/Sim/TB_ADC_EMG/ams/config/netlist/.mapi//xcelium.d/AMSD/ams_spice_in/ahdlSimDB  \
        =log  \
        /home/ykhuang/research/Sim/TB_ADC_EMG/ams/config/netlist/.mapi//xcelium.d/AMSD/ams_spice_in/./.amsspice_pre.ckt.log  \
        -token  \
        0001AF26C83A239465DFBB2CC00A229E73C4B63DFD3B60CB2080E838B83335D47FDDA126F37837D471DEBA2AFC31339371C2EE04803012A43FE4AE2FEB5717D455FDB87DE2373E9D73DFE227E8323C9275C4EA72EE2120927DD1B532AB66398E75DC8D5FD35603BF51FD9A3DB23420924FC3997BA0767ED47E9FB63EAA3E399863C0BD61EB083390759EA53DAD7A649D29D6880DD7DE537F10B0A126F35737FB71DEA80F9E0E50FB24B0C4528E5D339A7CDFB374B06461CB648AA83DC30C50FB10B0C8108B513696709D00005B6A

Loading /pkg/cadence/installs/XCELIUM1803/tools.lnx86/cmi/lib/64bit/5.0/libinfineon_sh.so ...
Loading /pkg/cadence/installs/XCELIUM1803/tools.lnx86/cmi/lib/64bit/5.0/libphilips_o_sh.so ...
Loading /pkg/cadence/installs/XCELIUM1803/tools.lnx86/cmi/lib/64bit/5.0/libphilips_sh.so ...
Loading /pkg/cadence/installs/XCELIUM1803/tools.lnx86/cmi/lib/64bit/5.0/libsparam_sh.so ...
Loading /pkg/cadence/installs/XCELIUM1803/tools.lnx86/cmi/lib/64bit/5.0/libstmodels_sh.so ...
Reading file:  /home/ykhuang/research/Sim/TB_ADC_EMG/ams/config/netlist/.mapi/xcelium.d/AMSD/ams_spice_in/.amsspice_pre.ckt
Reading file:  /pkg/cadence/installs/XCELIUM1803/tools.lnx86/spectre/etc/configs/mapsubckt.cfg
Reading file:  /pkg/cadence/installs/XCELIUM1803/tools.lnx86/spectre/etc/configs/spectre.cfg
Time for NDB Parsing: CPU = 108.637 ms, elapsed = 167.762 ms.
Time accumulated: CPU = 146.704 ms, elapsed = 167.773 ms.
Peak resident memory used = 48.4 Mbytes.

