
Spectre (R) Circuit Simulator
Version 17.1.0.433.isr9 64bit -- 5 Nov 2018
Copyright (C) 1989-2018 Cadence Design Systems, Inc. All rights reserved worldwide. Cadence and Spectre are registered trademarks of Cadence Design Systems, Inc. All others are the property of their respective holders.

Includes RSA BSAFE(R) Cryptographic or Security Protocol Software from RSA Security, Inc.

User: ykhuang   Host: s2424   HostID: ED824314   PID: 2214
Memory  available: 53.4445 GB  physical: 67.2863 GB
Linux   : CentOS Linux release 7.9.2009 (Core)
CPU Type: Intel(R) Xeon(R) CPU E5-2630 v3 @ 2.40GHz
        Socket: Processors [Frequency] (Hyperthreaded Processor)
        0:       0 [1231.2] ( 16 ),  1 [1200.0] ( 17 ),  2 [1271.2] ( 18 )
                 3 [1242.6] ( 19 ),  4 [1200.0] ( 20 ),  5 [1200.6] ( 21 )
                 6 [1200.0] ( 22 ),  7 [1202.3] ( 23 )
        1:       8 [1199.9] ( 24 ),  9 [1200.4] ( 25 ), 10 [1260.6] ( 26 )
                11 [1200.3] ( 27 ), 12 [1200.0] ( 28 ), 13 [1200.0] ( 29 )
                14 [1200.0] ( 30 ), 15 [1200.0] ( 31 )
        
System load averages (1min, 5min, 15min) : 0.0 %, 0.2 %, 0.3 %
Hyperthreading is enabled


Simulating `/home/ykhuang/research/Sim/TB_ADC_EMG/ams/config/netlist/.mapi//xcelium.d/AMSD/ams_spice_in/./.amsspice_pre.ckt' on s2424 at 11:54:50 PM, Sun Feb 14, 2021 (process id: 2214).
Current working directory: /home/ykhuang/research/Sim/TB_ADC_EMG/ams/config/netlist
Environment variable:
    SPECTRE_DEFAULTS=
Command line:
    amsprimtool  \
        /home/ykhuang/research/Sim/TB_ADC_EMG/ams/config/netlist/.mapi//xcelium.d/AMSD/ams_spice_in/./.amsspice_pre.ckt  \
        -noraw -va,amsspice_pre -ahdllibdir  \
        /home/ykhuang/research/Sim/TB_ADC_EMG/ams/config/netlist/.mapi//xcelium.d/AMSD/ams_spice_in/ahdlSimDB  \
        =log  \
        /home/ykhuang/research/Sim/TB_ADC_EMG/ams/config/netlist/.mapi//xcelium.d/AMSD/ams_spice_in/./.amsspice_pre.ckt.log  \
        -token  \
        0001AF26C83A239465DFBB2CC00A229E73C4B63DFD3B60CB2080E838B83335D47FDDA126F37837D471DEBA2AFC31339371C2EE04803012A43FE4AE2FEB5717D455FDB87DE2373E9D73DFE227E8323C9275C4EA72EE2120927DD1B532AB66398E75DC8D5FD35603BF51FD9A3DB23420924FC3997BA0767ED47E9FB63EAA3E399863C0BD61EB083390759EAD3BAA2963CE2683880DD88B537F10B0A126F35737FB71DEA80F9E0E50FB24B0C4528E5D339A7CDFB374B06461CB648AA83DC30C50FB10B0C8144704FAC3709900005B5E

Loading /pkg/cadence/installs/XCELIUM1803/tools.lnx86/cmi/lib/64bit/5.0/libinfineon_sh.so ...
Loading /pkg/cadence/installs/XCELIUM1803/tools.lnx86/cmi/lib/64bit/5.0/libphilips_o_sh.so ...
Loading /pkg/cadence/installs/XCELIUM1803/tools.lnx86/cmi/lib/64bit/5.0/libphilips_sh.so ...
Loading /pkg/cadence/installs/XCELIUM1803/tools.lnx86/cmi/lib/64bit/5.0/libsparam_sh.so ...
Loading /pkg/cadence/installs/XCELIUM1803/tools.lnx86/cmi/lib/64bit/5.0/libstmodels_sh.so ...
Reading file:  /home/ykhuang/research/Sim/TB_ADC_EMG/ams/config/netlist/.mapi/xcelium.d/AMSD/ams_spice_in/.amsspice_pre.ckt
Reading file:  /pkg/cadence/installs/XCELIUM1803/tools.lnx86/spectre/etc/configs/mapsubckt.cfg
Reading file:  /pkg/cadence/installs/XCELIUM1803/tools.lnx86/spectre/etc/configs/spectre.cfg
Time for NDB Parsing: CPU = 128.851 ms, elapsed = 212.867 ms.
Time accumulated: CPU = 186.528 ms, elapsed = 212.878 ms.
Peak resident memory used = 50.3 Mbytes.

