
Spectre (R) Circuit Simulator
Version 17.1.0.433.isr9 64bit -- 5 Nov 2018
Copyright (C) 1989-2018 Cadence Design Systems, Inc. All rights reserved worldwide. Cadence and Spectre are registered trademarks of Cadence Design Systems, Inc. All others are the property of their respective holders.

Includes RSA BSAFE(R) Cryptographic or Security Protocol Software from RSA Security, Inc.

User: ykhuang   Host: s2424   HostID: ED824314   PID: 15288
Memory  available: 53.5607 GB  physical: 67.2863 GB
Linux   : CentOS Linux release 7.9.2009 (Core)
CPU Type: Intel(R) Xeon(R) CPU E5-2630 v3 @ 2.40GHz
        Socket: Processors [Frequency] (Hyperthreaded Processor)
        0:       0 [1200.0] ( 16 ),  1 [1200.0] ( 17 ),  2 [1265.5] ( 18 )
                 3 [1256.8] ( 19 ),  4 [1257.3] ( 20 ),  5 [1200.6] ( 21 )
                 6 [1200.0] ( 22 ),  7 [1200.1] ( 23 )
        1:       8 [1200.0] ( 24 ),  9 [1279.0] ( 25 ), 10 [1200.0] ( 26 )
                11 [1200.0] ( 27 ), 12 [1200.0] ( 28 ), 13 [1200.0] ( 29 )
                14 [1266.2] ( 30 ), 15 [1200.0] ( 31 )
        
System load averages (1min, 5min, 15min) : 0.2 %, 0.7 %, 0.9 %
Hyperthreading is enabled


Simulating `/home/ykhuang/research/Sim/TB_Digital_Stimulus_EMG_NMES_V2/ams/config/netlist/.mapi//xcelium.d/AMSD/ams_spice_in/./.amsspice_pre.ckt' on s2424 at 3:02:31 PM, Mon Feb 15, 2021 (process id: 15288).
Current working directory: /home/ykhuang/research/Sim/TB_Digital_Stimulus_EMG_NMES_V2/ams/config/netlist
Environment variable:
    SPECTRE_DEFAULTS=
Command line:
    amsprimtool  \
        /home/ykhuang/research/Sim/TB_Digital_Stimulus_EMG_NMES_V2/ams/config/netlist/.mapi//xcelium.d/AMSD/ams_spice_in/./.amsspice_pre.ckt  \
        -noraw -va,amsspice_pre -ahdllibdir  \
        /home/ykhuang/research/Sim/TB_Digital_Stimulus_EMG_NMES_V2/ams/config/netlist/.mapi//xcelium.d/AMSD/ams_spice_in/ahdlSimDB  \
        =log  \
        /home/ykhuang/research/Sim/TB_Digital_Stimulus_EMG_NMES_V2/ams/config/netlist/.mapi//xcelium.d/AMSD/ams_spice_in/./.amsspice_pre.ckt.log  \
        -token  \
        0001AF26C83A239465DFBB2CC00A229E73C4B63DFD3B60CB2080E838B83335D47FDDA126F37837D471DEBA2AFC31339371C2EE04803012A43FE4BB35C50A3CA464D1B43CCB3B258865DCBA34FF3C1DBE4FFED16ED3103D883FD1A13AA57037D476D9B522F77624D479C3A062EC297F83799FB139A03D7E9F65DDA141A3103196549FB22EFB3C35A479D3A83DE53F31963F9EBB31C13F0F8B73D5ED2ABF3F709D7BC4A168F43F70CB2983A83DEEB8537F10B0A126F35737FB71DEA80F9E0E50FB24B0C4528E5D339A7CDFB374B06461CB648AA83DC30C50FB10B0C81793C92E0E709A00006680

Loading /pkg/cadence/installs/XCELIUM1803/tools.lnx86/cmi/lib/64bit/5.0/libinfineon_sh.so ...
Loading /pkg/cadence/installs/XCELIUM1803/tools.lnx86/cmi/lib/64bit/5.0/libphilips_o_sh.so ...
Loading /pkg/cadence/installs/XCELIUM1803/tools.lnx86/cmi/lib/64bit/5.0/libphilips_sh.so ...
Loading /pkg/cadence/installs/XCELIUM1803/tools.lnx86/cmi/lib/64bit/5.0/libsparam_sh.so ...
Loading /pkg/cadence/installs/XCELIUM1803/tools.lnx86/cmi/lib/64bit/5.0/libstmodels_sh.so ...
Reading file:  /home/ykhuang/research/Sim/TB_Digital_Stimulus_EMG_NMES_V2/ams/config/netlist/.mapi/xcelium.d/AMSD/ams_spice_in/.amsspice_pre.ckt
Reading file:  /pkg/cadence/installs/XCELIUM1803/tools.lnx86/spectre/etc/configs/mapsubckt.cfg
Reading file:  /pkg/cadence/installs/XCELIUM1803/tools.lnx86/spectre/etc/configs/spectre.cfg
Time for NDB Parsing: CPU = 127.432 ms, elapsed = 209.623 ms.
Time accumulated: CPU = 187.588 ms, elapsed = 209.634 ms.
Peak resident memory used = 48.4 Mbytes.

