simulate...


Spectre (R) Circuit Simulator
Version 18.1.0.516.isr12 64bit -- 25 Oct 2019

Copyright (C) 1989-2019 Cadence Design Systems, Inc. All rights reserved
        worldwide. Cadence and Spectre are registered trademarks of Cadence
        Design Systems, Inc. All others are the property of their respective

        holders.


Includes RSA BSAFE(R) Cryptographic or Security Protocol Software from RSA

        Security, Inc.


User: ykhuang   Host: s2424   HostID: ED824314   PID: 32319

Memory  available: 48.5259 GB  physical: 67.2863 GB

Linux   : CentOS Linux release 7.9.2009 (Core)
CPU Type: Intel(R) Xeon(R) CPU E5-2630 v3 @ 2.40GHz
        Socket: Processors [Frequency] (Hyperthreaded Processor)
        0:       0 [1555.1] ( 16 ),  1 [1463.2] ( 17 ),  2 [1226.7] ( 18 )
                 3 [1268.7] ( 19 ),  4 [1367.4] ( 20 ),  5 [1212.9] ( 21 )
                 6 [1200.1] ( 22 ),  7 [1294.6] ( 23 )
        1:       8 [1486.4] ( 24 ),  9 [1243.1] ( 25 ), 10 [1295.1] ( 26 )
                11 [1293.8] ( 27 ), 12 [1200.0] ( 28 ), 13 [1262.4] ( 29 )
                14 [1200.3] ( 30 ), 15 [1200.0] ( 31 )
        
System load averages (1min, 5min, 15min) : 0.2 %, 0.2 %, 0.2 %
Hyperthreading is enabled



Simulating `input.scs' on s2424 at 10:17:46 AM, Tue Apr 6, 2021 (process id:
        32319).

Current working directory:
        /home/ykhuang/research/Sim/TB_OneChannel_DC_imp/spectre/schematic/.tmpOPDataDir/netlist

Command line:
    /pkg/cadence/installs/SPECTRE181/tools/bin/spectre -64 input.scs  \
        +escchars +log ../psf/spectre.out -format psfxl -raw ../psf  \

        +lqtimeout 900 -maxw 5 -maxn 5 -env ade

Reading file: 
        /home/ykhuang/research/Sim/TB_OneChannel_DC_imp/spectre/schematic/.tmpOPDataDir/netlist/input.scs

Reading file: 
        /pkg/cadence/installs/SPECTRE181/tools.lnx86/spectre/etc/configs/spectre.cfg

Reading file: 
        /pkg/xfab/XKIT/xh018/cadence/v8_0/spectre/v8_0_1/lpmos/config.scs

Reading file: 
        /pkg/xfab/XKIT/xh018/cadence/v8_0/spectre/v8_0_1/lpmos/param.scs

Reading file:  /pkg/xfab/XKIT/xh018/cadence/v8_0/spectre/v8_0_1/lpmos/bip.scs

Reading file: 
        /pkg/xfab/XKIT/xh018/cadence/v8_0/spectre/v8_0_1/lpmos/models/bip/tm_bip.scs

Reading file: 
        /pkg/xfab/XKIT/xh018/cadence/v8_0/spectre/v8_0_1/lpmos/models/bip/qpva.scs

Reading file: 
        /pkg/xfab/XKIT/xh018/cadence/v8_0/spectre/v8_0_1/lpmos/models/bip/qpvb.scs

Reading file: 
        /pkg/xfab/XKIT/xh018/cadence/v8_0/spectre/v8_0_1/lpmos/models/bip/qpvc.scs

Reading file: 
        /pkg/xfab/XKIT/xh018/cadence/v8_0/spectre/v8_0_1/lpmos/models/bip/qpva3.scs

Reading file: 
        /pkg/xfab/XKIT/xh018/cadence/v8_0/spectre/v8_0_1/lpmos/models/bip/qpvb3.scs

Reading file: 
        /pkg/xfab/XKIT/xh018/cadence/v8_0/spectre/v8_0_1/lpmos/models/bip/qpvc3.scs

Reading file: 
        /pkg/xfab/XKIT/xh018/cadence/v8_0/spectre/v8_0_1/lpmos/models/bip/qnva.scs

Reading file: 
        /pkg/xfab/XKIT/xh018/cadence/v8_0/spectre/v8_0_1/lpmos/models/bip/qnvb.scs

Reading file: 
        /pkg/xfab/XKIT/xh018/cadence/v8_0/spectre/v8_0_1/lpmos/models/bip/qnvb_npn.scs

Reading file: 
        /pkg/xfab/XKIT/xh018/cadence/v8_0/spectre/v8_0_1/lpmos/models/bip/qnvb_pnp.scs

Reading file: 
        /pkg/xfab/XKIT/xh018/cadence/v8_0/spectre/v8_0_1/lpmos/models/bip/qnvc.scs

Reading file: 
        /pkg/xfab/XKIT/xh018/cadence/v8_0/spectre/v8_0_1/lpmos/models/bip/qnvc_npn.scs

Reading file: 
        /pkg/xfab/XKIT/xh018/cadence/v8_0/spectre/v8_0_1/lpmos/models/bip/qnvc_pnp.scs

Reading file: 
        /pkg/xfab/XKIT/xh018/cadence/v8_0/spectre/v8_0_1/lpmos/models/bip/qpvhscr.scs

Reading file: 
        /pkg/xfab/XKIT/xh018/cadence/v8_0/spectre/v8_0_1/lpmos/models/bip/qpvascr.scs

Reading file: 
        /pkg/xfab/XKIT/xh018/cadence/v8_0/spectre/v8_0_1/lpmos/models/bip/qpvhbscr.scs

Reading file: 
        /pkg/xfab/XKIT/xh018/cadence/v8_0/spectre/v8_0_1/lpmos/models/bip/qpv_pa.scs

Reading file: 
        /pkg/xfab/XKIT/xh018/cadence/v8_0/spectre/v8_0_1/lpmos/models/bip/qpv_pb.scs

Reading file: 
        /pkg/xfab/XKIT/xh018/cadence/v8_0/spectre/v8_0_1/lpmos/models/bip/qpv_pc.scs

Reading file: 
        /pkg/xfab/XKIT/xh018/cadence/v8_0/spectre/v8_0_1/lpmos/models/bip/qpv_pd.scs

Reading file: 
        /pkg/xfab/XKIT/xh018/cadence/v8_0/spectre/v8_0_1/lpmos/models/bip/qpv_pe.scs

Reading file: 
        /pkg/xfab/XKIT/xh018/cadence/v8_0/spectre/v8_0_1/lpmos/models/bip/qpv_pf.scs

Reading file: 
        /pkg/xfab/XKIT/xh018/cadence/v8_0/spectre/v8_0_1/lpmos/models/bip/qpl_pa.scs

Reading file: 
        /pkg/xfab/XKIT/xh018/cadence/v8_0/spectre/v8_0_1/lpmos/models/bip/qpl_pb.scs

Reading file: 
        /pkg/xfab/XKIT/xh018/cadence/v8_0/spectre/v8_0_1/lpmos/models/bip/qpl_pc.scs

Reading file: 
        /pkg/xfab/XKIT/xh018/cadence/v8_0/spectre/v8_0_1/lpmos/models/bip/qpl_pd.scs

Reading file: 
        /pkg/xfab/XKIT/xh018/cadence/v8_0/spectre/v8_0_1/lpmos/models/bip/qpl_pe.scs

Reading file: 
        /pkg/xfab/XKIT/xh018/cadence/v8_0/spectre/v8_0_1/lpmos/models/bip/qpl_pf.scs

Reading file: 
        /pkg/xfab/XKIT/xh018/cadence/v8_0/spectre/v8_0_1/lpmos/models/bip/qnl_pa.scs

Reading file: 
        /pkg/xfab/XKIT/xh018/cadence/v8_0/spectre/v8_0_1/lpmos/models/bip/qnl_pb.scs

Reading file: 
        /pkg/xfab/XKIT/xh018/cadence/v8_0/spectre/v8_0_1/lpmos/models/bip/qnl_pc.scs

Reading file: 
        /pkg/xfab/XKIT/xh018/cadence/v8_0/spectre/v8_0_1/lpmos/models/bip/qnl_pd.scs

Reading file: 
        /pkg/xfab/XKIT/xh018/cadence/v8_0/spectre/v8_0_1/lpmos/models/bip/qnl_pe.scs

Reading file: 
        /pkg/xfab/XKIT/xh018/cadence/v8_0/spectre/v8_0_1/lpmos/models/bip/qnl_pf.scs

Reading file:  /pkg/xfab/XKIT/xh018/cadence/v8_0/spectre/v8_0_1/lpmos/cap.scs

Reading file: 
        /pkg/xfab/XKIT/xh018/cadence/v8_0/spectre/v8_0_1/lpmos/models/cap/tm_cap.scs

Reading file: 
        /pkg/xfab/XKIT/xh018/cadence/v8_0/spectre/v8_0_1/lpmos/models/cap/csandwt3.scs

Reading file: 
        /pkg/xfab/XKIT/xh018/cadence/v8_0/spectre/v8_0_1/lpmos/models/cap/csandwt4.scs

Reading file: 
        /pkg/xfab/XKIT/xh018/cadence/v8_0/spectre/v8_0_1/lpmos/models/cap/csandwt5.scs

Reading file: 
        /pkg/xfab/XKIT/xh018/cadence/v8_0/spectre/v8_0_1/lpmos/models/cap/csf2p.scs

Reading file: 
        /pkg/xfab/XKIT/xh018/cadence/v8_0/spectre/v8_0_1/lpmos/models/cap/csf3p.scs

Reading file: 
        /pkg/xfab/XKIT/xh018/cadence/v8_0/spectre/v8_0_1/lpmos/models/cap/csf3.scs

Reading file: 
        /pkg/xfab/XKIT/xh018/cadence/v8_0/spectre/v8_0_1/lpmos/models/cap/csf4.scs

Reading file: 
        /pkg/xfab/XKIT/xh018/cadence/v8_0/spectre/v8_0_1/lpmos/models/cap/csf5.scs

Reading file: 
        /pkg/xfab/XKIT/xh018/cadence/v8_0/spectre/v8_0_1/lpmos/models/cap/csft4.scs

Reading file: 
        /pkg/xfab/XKIT/xh018/cadence/v8_0/spectre/v8_0_1/lpmos/models/cap/csft5.scs

Reading file: 
        /pkg/xfab/XKIT/xh018/cadence/v8_0/spectre/v8_0_1/lpmos/models/cap/csft6.scs

Reading file: 
        /pkg/xfab/XKIT/xh018/cadence/v8_0/spectre/v8_0_1/lpmos/models/cap/csf3a.scs

Reading file: 
        /pkg/xfab/XKIT/xh018/cadence/v8_0/spectre/v8_0_1/lpmos/models/cap/csf4a.scs

Reading file: 
        /pkg/xfab/XKIT/xh018/cadence/v8_0/spectre/v8_0_1/lpmos/models/cap/csf5a.scs

Reading file: 
        /pkg/xfab/XKIT/xh018/cadence/v8_0/spectre/v8_0_1/lpmos/models/cap/csft4a.scs

Reading file: 
        /pkg/xfab/XKIT/xh018/cadence/v8_0/spectre/v8_0_1/lpmos/models/cap/csft5a.scs

Reading file: 
        /pkg/xfab/XKIT/xh018/cadence/v8_0/spectre/v8_0_1/lpmos/models/cap/csft6a.scs

Reading file: 
        /pkg/xfab/XKIT/xh018/cadence/v8_0/spectre/v8_0_1/lpmos/models/cap/cmm3.scs

Reading file: 
        /pkg/xfab/XKIT/xh018/cadence/v8_0/spectre/v8_0_1/lpmos/models/cap/cmm4t.scs

Reading file: 
        /pkg/xfab/XKIT/xh018/cadence/v8_0/spectre/v8_0_1/lpmos/models/cap/cmm4.scs

Reading file: 
        /pkg/xfab/XKIT/xh018/cadence/v8_0/spectre/v8_0_1/lpmos/models/cap/cmm5t.scs

Reading file: 
        /pkg/xfab/XKIT/xh018/cadence/v8_0/spectre/v8_0_1/lpmos/models/cap/cmm6t.scs

Reading file: 
        /pkg/xfab/XKIT/xh018/cadence/v8_0/spectre/v8_0_1/lpmos/models/cap/cdmm4.scs

Reading file: 
        /pkg/xfab/XKIT/xh018/cadence/v8_0/spectre/v8_0_1/lpmos/models/cap/cdmm4t.scs

Reading file: 
        /pkg/xfab/XKIT/xh018/cadence/v8_0/spectre/v8_0_1/lpmos/models/cap/ctmm5.scs

Reading file: 
        /pkg/xfab/XKIT/xh018/cadence/v8_0/spectre/v8_0_1/lpmos/models/cap/ctmm5t.scs

Reading file: 
        /pkg/xfab/XKIT/xh018/cadence/v8_0/spectre/v8_0_1/lpmos/models/cap/cmmh3.scs

Reading file: 
        /pkg/xfab/XKIT/xh018/cadence/v8_0/spectre/v8_0_1/lpmos/models/cap/cmmh4t.scs

Reading file: 
        /pkg/xfab/XKIT/xh018/cadence/v8_0/spectre/v8_0_1/lpmos/models/cap/cmmh4.scs

Reading file: 
        /pkg/xfab/XKIT/xh018/cadence/v8_0/spectre/v8_0_1/lpmos/models/cap/cmmh5t.scs

Reading file: 
        /pkg/xfab/XKIT/xh018/cadence/v8_0/spectre/v8_0_1/lpmos/models/cap/cmmh6t.scs

Reading file: 
        /pkg/xfab/XKIT/xh018/cadence/v8_0/spectre/v8_0_1/lpmos/models/cap/cdmmh4.scs

Reading file: 
        /pkg/xfab/XKIT/xh018/cadence/v8_0/spectre/v8_0_1/lpmos/models/cap/cdmmh4t.scs

Reading file: 
        /pkg/xfab/XKIT/xh018/cadence/v8_0/spectre/v8_0_1/lpmos/models/cap/ctmmh5.scs

Reading file: 
        /pkg/xfab/XKIT/xh018/cadence/v8_0/spectre/v8_0_1/lpmos/models/cap/ctmmh5t.scs

Reading file: 
        /pkg/xfab/XKIT/xh018/cadence/v8_0/spectre/v8_0_1/lpmos/models/cap/mosvc.scs

Reading file: 
        /pkg/xfab/XKIT/xh018/cadence/v8_0/spectre/v8_0_1/lpmos/models/cap/mosvc_pmos.scs

Reading file: 
        /pkg/xfab/XKIT/xh018/cadence/v8_0/spectre/v8_0_1/lpmos/models/cap/mosvci.scs

Reading file: 
        /pkg/xfab/XKIT/xh018/cadence/v8_0/spectre/v8_0_1/lpmos/models/cap/mosvci_nmos.scs

Reading file: 
        /pkg/xfab/XKIT/xh018/cadence/v8_0/spectre/v8_0_1/lpmos/models/cap/mosvci_m.scs

Reading file: 
        /pkg/xfab/XKIT/xh018/cadence/v8_0/spectre/v8_0_1/lpmos/models/cap/mosvc3.scs

Reading file: 
        /pkg/xfab/XKIT/xh018/cadence/v8_0/spectre/v8_0_1/lpmos/models/cap/mosvc3_pmos.scs

Reading file: 
        /pkg/xfab/XKIT/xh018/cadence/v8_0/spectre/v8_0_1/lpmos/models/cap/mosvc3i.scs

Reading file: 
        /pkg/xfab/XKIT/xh018/cadence/v8_0/spectre/v8_0_1/lpmos/models/cap/mosvc3i_nmos.scs

Reading file: 
        /pkg/xfab/XKIT/xh018/cadence/v8_0/spectre/v8_0_1/lpmos/models/cap/mosvc3i_m.scs

Reading file: 
        /pkg/xfab/XKIT/xh018/cadence/v8_0/spectre/v8_0_1/lpmos/models/cap/cpod.scs

Reading file: 
        /pkg/xfab/XKIT/xh018/cadence/v8_0/spectre/v8_0_1/lpmos/models/cap/cpod_i.scs

Reading file: 
        /pkg/xfab/XKIT/xh018/cadence/v8_0/spectre/v8_0_1/lpmos/models/cap/cpodhv.scs

Reading file: 

        /pkg/xfab/XKIT/xh018/cadence/v8_0/spectre/v8_0_1/lpmos/models/cap/cpodhv_i.scs

Reading file: 
        /pkg/xfab/XKIT/xh018/cadence/v8_0/spectre/v8_0_1/lpmos/models/cap/cp1sub.scs

Reading file: 
        /pkg/xfab/XKIT/xh018/cadence/v8_0/spectre/v8_0_1/lpmos/models/cap/cp1suba.scs

Reading file: 
        /pkg/xfab/XKIT/xh018/cadence/v8_0/spectre/v8_0_1/lpmos/models/cap/cp1subp.scs

Reading file: 
        /pkg/xfab/XKIT/xh018/cadence/v8_0/spectre/v8_0_1/lpmos/models/cap/tag_25v.scs

Reading file: 
        /pkg/xfab/XKIT/xh018/cadence/v8_0/spectre/v8_0_1/lpmos/models/cap/tag_60v.scs

Reading file:  /pkg/xfab/XKIT/xh018/cadence/v8_0/spectre/v8_0_1/lpmos/dio.scs

Reading file: 
        /pkg/xfab/XKIT/xh018/cadence/v8_0/spectre/v8_0_1/lpmos/models/dio/tm_dio.scs

Reading file: 
        /pkg/xfab/XKIT/xh018/cadence/v8_0/spectre/v8_0_1/lpmos/models/dio/dn.scs

Reading file: 
        /pkg/xfab/XKIT/xh018/cadence/v8_0/spectre/v8_0_1/lpmos/models/dio/dp.scs

Reading file: 
        /pkg/xfab/XKIT/xh018/cadence/v8_0/spectre/v8_0_1/lpmos/models/dio/dnw.scs

Reading file: 
        /pkg/xfab/XKIT/xh018/cadence/v8_0/spectre/v8_0_1/lpmos/models/dio/dn3.scs

Reading file: 
        /pkg/xfab/XKIT/xh018/cadence/v8_0/spectre/v8_0_1/lpmos/models/dio/dnn3.scs

Reading file: 
        /pkg/xfab/XKIT/xh018/cadence/v8_0/spectre/v8_0_1/lpmos/models/dio/dp3.scs

Reading file: 
        /pkg/xfab/XKIT/xh018/cadence/v8_0/spectre/v8_0_1/lpmos/models/dio/dnw3.scs

Reading file: 
        /pkg/xfab/XKIT/xh018/cadence/v8_0/spectre/v8_0_1/lpmos/models/dio/ddnwmv.scs

Reading file: 
        /pkg/xfab/XKIT/xh018/cadence/v8_0/spectre/v8_0_1/lpmos/models/dio/dpdnwmv.scs

Reading file: 
        /pkg/xfab/XKIT/xh018/cadence/v8_0/spectre/v8_0_1/lpmos/models/dio/dipdnwmv.scs

Reading file: 
        /pkg/xfab/XKIT/xh018/cadence/v8_0/spectre/v8_0_1/lpmos/models/dio/ddnw.scs

Reading file: 
        /pkg/xfab/XKIT/xh018/cadence/v8_0/spectre/v8_0_1/lpmos/models/dio/dpdnw.scs

Reading file: 
        /pkg/xfab/XKIT/xh018/cadence/v8_0/spectre/v8_0_1/lpmos/models/dio/dipdnw.scs

Reading file: 
        /pkg/xfab/XKIT/xh018/cadence/v8_0/spectre/v8_0_1/lpmos/models/dio/dnhpw.scs

Reading file: 
        /pkg/xfab/XKIT/xh018/cadence/v8_0/spectre/v8_0_1/lpmos/models/dio/dnhpwa.scs

Reading file: 
        /pkg/xfab/XKIT/xh018/cadence/v8_0/spectre/v8_0_1/lpmos/models/dio/dphnw.scs

Reading file: 
        /pkg/xfab/XKIT/xh018/cadence/v8_0/spectre/v8_0_1/lpmos/models/dio/dphnwa.scs

Reading file: 
        /pkg/xfab/XKIT/xh018/cadence/v8_0/spectre/v8_0_1/lpmos/models/dio/dhpw.scs

Reading file: 
        /pkg/xfab/XKIT/xh018/cadence/v8_0/spectre/v8_0_1/lpmos/models/dio/dhnw.scs

Reading file: 
        /pkg/xfab/XKIT/xh018/cadence/v8_0/spectre/v8_0_1/lpmos/models/dio/dndf.scs

Reading file: 
        /pkg/xfab/XKIT/xh018/cadence/v8_0/spectre/v8_0_1/lpmos/models/dio/dpdwhn.scs

Reading file: 
        /pkg/xfab/XKIT/xh018/cadence/v8_0/spectre/v8_0_1/lpmos/models/dio/dwhn.scs

Reading file: 
        /pkg/xfab/XKIT/xh018/cadence/v8_0/spectre/v8_0_1/lpmos/models/dio/dpwhn.scs

Reading file: 
        /pkg/xfab/XKIT/xh018/cadence/v8_0/spectre/v8_0_1/lpmos/models/dio/dpndf.scs

Reading file: 
        /pkg/xfab/XKIT/xh018/cadence/v8_0/spectre/v8_0_1/lpmos/models/dio/dpdddnw.scs

Reading file: 
        /pkg/xfab/XKIT/xh018/cadence/v8_0/spectre/v8_0_1/lpmos/models/dio/ddpldnw.scs

Reading file: 
        /pkg/xfab/XKIT/xh018/cadence/v8_0/spectre/v8_0_1/lpmos/models/dio/dn3dpl.scs

Reading file: 
        /pkg/xfab/XKIT/xh018/cadence/v8_0/spectre/v8_0_1/lpmos/models/dio/dbn.scs

Reading file: 
        /pkg/xfab/XKIT/xh018/cadence/v8_0/spectre/v8_0_1/lpmos/models/dio/dpol.scs

Reading file: 
        /pkg/xfab/XKIT/xh018/cadence/v8_0/spectre/v8_0_1/lpmos/models/dio/dnpdd_scr.scs

Reading file: 
        /pkg/xfab/XKIT/xh018/cadence/v8_0/spectre/v8_0_1/lpmos/models/dio/dpdd_scr.scs

Reading file: 
        /pkg/xfab/XKIT/xh018/cadence/v8_0/spectre/v8_0_1/lpmos/models/dio/dsb.scs

Reading file: 
        /pkg/xfab/XKIT/xh018/cadence/v8_0/spectre/v8_0_1/lpmos/models/dio/dsba.scs

Reading file: 
        /pkg/xfab/XKIT/xh018/cadence/v8_0/spectre/v8_0_1/lpmos/models/dio/dsba_qp1.scs

Reading file: 
        /pkg/xfab/XKIT/xh018/cadence/v8_0/spectre/v8_0_1/lpmos/models/dio/dnp20.scs

Reading file: 
        /pkg/xfab/XKIT/xh018/cadence/v8_0/spectre/v8_0_1/lpmos/models/dio/dpp20.scs

Reading file: 
        /pkg/xfab/XKIT/xh018/cadence/v8_0/spectre/v8_0_1/lpmos/models/dio/dn3sci.scs

Reading file: 
        /pkg/xfab/XKIT/xh018/cadence/v8_0/spectre/v8_0_1/lpmos/models/dio/dscidnwmv.scs

Reading file:  /pkg/xfab/XKIT/xh018/cadence/v8_0/spectre/v8_0_1/lpmos/mos.scs

Reading file: 
        /pkg/xfab/XKIT/xh018/cadence/v8_0/spectre/v8_0_1/lpmos/models/mos/tm_mos.scs

Reading file: 
        /pkg/xfab/XKIT/xh018/cadence/v8_0/spectre/v8_0_1/lpmos/models/mos/ne.scs

Reading file: 
        /pkg/xfab/XKIT/xh018/cadence/v8_0/spectre/v8_0_1/lpmos/models/mos/nei.scs

Reading file: 
        /pkg/xfab/XKIT/xh018/cadence/v8_0/spectre/v8_0_1/lpmos/models/mos/nei_6.scs

Reading file: 
        /pkg/xfab/XKIT/xh018/cadence/v8_0/spectre/v8_0_1/lpmos/models/mos/nei_m_6.scs

Reading file: 
        /pkg/xfab/XKIT/xh018/cadence/v8_0/spectre/v8_0_1/lpmos/models/mos/pe.scs

Reading file: 
        /pkg/xfab/XKIT/xh018/cadence/v8_0/spectre/v8_0_1/lpmos/models/mos/pe_5.scs

Reading file: 
        /pkg/xfab/XKIT/xh018/cadence/v8_0/spectre/v8_0_1/lpmos/models/mos/pei.scs

Reading file: 
        /pkg/xfab/XKIT/xh018/cadence/v8_0/spectre/v8_0_1/lpmos/models/mos/pei_5.scs

Reading file: 
        /pkg/xfab/XKIT/xh018/cadence/v8_0/spectre/v8_0_1/lpmos/models/mos/pei_m_5.scs

Reading file: 
        /pkg/xfab/XKIT/xh018/cadence/v8_0/spectre/v8_0_1/lpmos/models/mos/nel.scs

Reading file: 
        /pkg/xfab/XKIT/xh018/cadence/v8_0/spectre/v8_0_1/lpmos/models/mos/neli.scs

Reading file: 
        /pkg/xfab/XKIT/xh018/cadence/v8_0/spectre/v8_0_1/lpmos/models/mos/neli_6.scs

Reading file: 
        /pkg/xfab/XKIT/xh018/cadence/v8_0/spectre/v8_0_1/lpmos/models/mos/neli_m_6.scs

Reading file: 
        /pkg/xfab/XKIT/xh018/cadence/v8_0/spectre/v8_0_1/lpmos/models/mos/pel.scs

Reading file: 
        /pkg/xfab/XKIT/xh018/cadence/v8_0/spectre/v8_0_1/lpmos/models/mos/pel_5.scs

Reading file: 
        /pkg/xfab/XKIT/xh018/cadence/v8_0/spectre/v8_0_1/lpmos/models/mos/peli.scs

Reading file: 
        /pkg/xfab/XKIT/xh018/cadence/v8_0/spectre/v8_0_1/lpmos/models/mos/peli_5.scs

Reading file: 
        /pkg/xfab/XKIT/xh018/cadence/v8_0/spectre/v8_0_1/lpmos/models/mos/peli_m_5.scs

Reading file: 
        /pkg/xfab/XKIT/xh018/cadence/v8_0/spectre/v8_0_1/lpmos/models/mos/nn3.scs

Reading file: 
        /pkg/xfab/XKIT/xh018/cadence/v8_0/spectre/v8_0_1/lpmos/models/mos/ne3.scs

Reading file: 
        /pkg/xfab/XKIT/xh018/cadence/v8_0/spectre/v8_0_1/lpmos/models/mos/ne3i.scs

Reading file: 
        /pkg/xfab/XKIT/xh018/cadence/v8_0/spectre/v8_0_1/lpmos/models/mos/ne3i_6.scs

Reading file: 
        /pkg/xfab/XKIT/xh018/cadence/v8_0/spectre/v8_0_1/lpmos/models/mos/ne3i_m_6.scs

Reading file: 
        /pkg/xfab/XKIT/xh018/cadence/v8_0/spectre/v8_0_1/lpmos/models/mos/pe3.scs

Reading file: 
        /pkg/xfab/XKIT/xh018/cadence/v8_0/spectre/v8_0_1/lpmos/models/mos/pe3_5.scs

Reading file: 
        /pkg/xfab/XKIT/xh018/cadence/v8_0/spectre/v8_0_1/lpmos/models/mos/pe3i.scs

Reading file: 
        /pkg/xfab/XKIT/xh018/cadence/v8_0/spectre/v8_0_1/lpmos/models/mos/pe3i_5.scs

Reading file: 
        /pkg/xfab/XKIT/xh018/cadence/v8_0/spectre/v8_0_1/lpmos/models/mos/pe3i_m_5.scs

Reading file: 
        /pkg/xfab/XKIT/xh018/cadence/v8_0/spectre/v8_0_1/lpmos/models/mos/pe3ln.scs

Reading file: 
        /pkg/xfab/XKIT/xh018/cadence/v8_0/spectre/v8_0_1/lpmos/models/mos/pe3ln_5.scs

Reading file: 
        /pkg/xfab/XKIT/xh018/cadence/v8_0/spectre/v8_0_1/lpmos/models/mos/pe3lni.scs

Reading file: 
        /pkg/xfab/XKIT/xh018/cadence/v8_0/spectre/v8_0_1/lpmos/models/mos/pe3lni_5.scs

Reading file: 
        /pkg/xfab/XKIT/xh018/cadence/v8_0/spectre/v8_0_1/lpmos/models/mos/pe3lni_m_5.scs

Reading file: 
        /pkg/xfab/XKIT/xh018/cadence/v8_0/spectre/v8_0_1/lpmos/models/mos/nd3.scs

Reading file: 
        /pkg/xfab/XKIT/xh018/cadence/v8_0/spectre/v8_0_1/lpmos/models/mos/nd3_mos1.scs

Reading file: 
        /pkg/xfab/XKIT/xh018/cadence/v8_0/spectre/v8_0_1/lpmos/models/mos/nd3_mos2.scs

Reading file: 
        /pkg/xfab/XKIT/xh018/cadence/v8_0/spectre/v8_0_1/lpmos/models/mos/nd3i.scs

Reading file: 
        /pkg/xfab/XKIT/xh018/cadence/v8_0/spectre/v8_0_1/lpmos/models/mos/nd3i_mos1.scs

Reading file: 
        /pkg/xfab/XKIT/xh018/cadence/v8_0/spectre/v8_0_1/lpmos/models/mos/nd3i_mos2.scs

Reading file: 
        /pkg/xfab/XKIT/xh018/cadence/v8_0/spectre/v8_0_1/lpmos/models/mos/nd3i_6.scs

Reading file: 
        /pkg/xfab/XKIT/xh018/cadence/v8_0/spectre/v8_0_1/lpmos/models/mos/nd3i_m_6.scs

Reading file: 
        /pkg/xfab/XKIT/xh018/cadence/v8_0/spectre/v8_0_1/lpmos/models/mos/nelna.scs

Reading file: 
        /pkg/xfab/XKIT/xh018/cadence/v8_0/spectre/v8_0_1/lpmos/models/mos/nelnai.scs

Reading file: 
        /pkg/xfab/XKIT/xh018/cadence/v8_0/spectre/v8_0_1/lpmos/models/mos/nelnai_6.scs

Reading file: 
        /pkg/xfab/XKIT/xh018/cadence/v8_0/spectre/v8_0_1/lpmos/models/mos/nelnai_m_6.scs

Reading file: 
        /pkg/xfab/XKIT/xh018/cadence/v8_0/spectre/v8_0_1/lpmos/models/mos/ne3lna.scs

Reading file: 
        /pkg/xfab/XKIT/xh018/cadence/v8_0/spectre/v8_0_1/lpmos/models/mos/ne3lnai.scs

Reading file: 
        /pkg/xfab/XKIT/xh018/cadence/v8_0/spectre/v8_0_1/lpmos/models/mos/ne3lnai_6.scs

Reading file: 
        /pkg/xfab/XKIT/xh018/cadence/v8_0/spectre/v8_0_1/lpmos/models/mos/ne3lnai_m_6.scs

Reading file: 
        /pkg/xfab/XKIT/xh018/cadence/v8_0/spectre/v8_0_1/lpmos/models/mos/pe3lna.scs

Reading file: 
        /pkg/xfab/XKIT/xh018/cadence/v8_0/spectre/v8_0_1/lpmos/models/mos/pe3lna_5.scs

Reading file: 
        /pkg/xfab/XKIT/xh018/cadence/v8_0/spectre/v8_0_1/lpmos/models/mos/pe3lnai.scs

Reading file: 
        /pkg/xfab/XKIT/xh018/cadence/v8_0/spectre/v8_0_1/lpmos/models/mos/pe3lnai_5.scs

Reading file: 
        /pkg/xfab/XKIT/xh018/cadence/v8_0/spectre/v8_0_1/lpmos/models/mos/pe3lnai_m_5.scs

Reading file: 
        /pkg/xfab/XKIT/xh018/cadence/v8_0/spectre/v8_0_1/lpmos/models/mos/nmma.scs

Reading file: 
        /pkg/xfab/XKIT/xh018/cadence/v8_0/spectre/v8_0_1/lpmos/models/mos/jf_nmma.scs

Reading file: 
        /pkg/xfab/XKIT/xh018/cadence/v8_0/spectre/v8_0_1/lpmos/models/mos/nmma_bjt.scs

Reading file: 
        /pkg/xfab/XKIT/xh018/cadence/v8_0/spectre/v8_0_1/lpmos/models/mos/pmma.scs

Reading file: 
        /pkg/xfab/XKIT/xh018/cadence/v8_0/spectre/v8_0_1/lpmos/models/mos/jf_pmma.scs

Reading file: 
        /pkg/xfab/XKIT/xh018/cadence/v8_0/spectre/v8_0_1/lpmos/models/mos/pmma_bjt.scs

Reading file: 
        /pkg/xfab/XKIT/xh018/cadence/v8_0/spectre/v8_0_1/lpmos/models/mos/nedi.scs

Reading file: 
        /pkg/xfab/XKIT/xh018/cadence/v8_0/spectre/v8_0_1/lpmos/models/mos/nedi_bjt.scs

Reading file: 
        /pkg/xfab/XKIT/xh018/cadence/v8_0/spectre/v8_0_1/lpmos/models/mos/nedia.scs

Reading file: 
        /pkg/xfab/XKIT/xh018/cadence/v8_0/spectre/v8_0_1/lpmos/models/mos/nedia_bjt.scs

Reading file: 
        /pkg/xfab/XKIT/xh018/cadence/v8_0/spectre/v8_0_1/lpmos/models/mos/ped2.scs

Reading file: 
        /pkg/xfab/XKIT/xh018/cadence/v8_0/spectre/v8_0_1/lpmos/models/mos/ped2_bjt.scs

Reading file: 
        /pkg/xfab/XKIT/xh018/cadence/v8_0/spectre/v8_0_1/lpmos/models/mos/ped.scs

Reading file: 
        /pkg/xfab/XKIT/xh018/cadence/v8_0/spectre/v8_0_1/lpmos/models/mos/ped_bjt.scs

Reading file: 
        /pkg/xfab/XKIT/xh018/cadence/v8_0/spectre/v8_0_1/lpmos/models/mos/nhv.scs

Reading file: 
        /pkg/xfab/XKIT/xh018/cadence/v8_0/spectre/v8_0_1/lpmos/models/mos/nhv_mos2.scs

Reading file: 
        /pkg/xfab/XKIT/xh018/cadence/v8_0/spectre/v8_0_1/lpmos/models/mos/nhv_bjt.scs

Reading file: 
        /pkg/xfab/XKIT/xh018/cadence/v8_0/spectre/v8_0_1/lpmos/models/mos/nhhv.scs

Reading file: 
        /pkg/xfab/XKIT/xh018/cadence/v8_0/spectre/v8_0_1/lpmos/models/mos/nhhv_mos2.scs

Reading file: 
        /pkg/xfab/XKIT/xh018/cadence/v8_0/spectre/v8_0_1/lpmos/models/mos/nhhv_bjt.scs

Reading file: 
        /pkg/xfab/XKIT/xh018/cadence/v8_0/spectre/v8_0_1/lpmos/models/mos/nmmc.scs

Reading file: 
        /pkg/xfab/XKIT/xh018/cadence/v8_0/spectre/v8_0_1/lpmos/models/mos/nmmc_mos2.scs

Reading file: 
        /pkg/xfab/XKIT/xh018/cadence/v8_0/spectre/v8_0_1/lpmos/models/mos/nmmc_bjt.scs

Reading file: 
        /pkg/xfab/XKIT/xh018/cadence/v8_0/spectre/v8_0_1/lpmos/models/mos/nmmd.scs

Reading file: 
        /pkg/xfab/XKIT/xh018/cadence/v8_0/spectre/v8_0_1/lpmos/models/mos/nmmd_mos2.scs

Reading file: 
        /pkg/xfab/XKIT/xh018/cadence/v8_0/spectre/v8_0_1/lpmos/models/mos/nmmd_bjt.scs

Reading file: 
        /pkg/xfab/XKIT/xh018/cadence/v8_0/spectre/v8_0_1/lpmos/models/mos/nmc.scs

Reading file: 
        /pkg/xfab/XKIT/xh018/cadence/v8_0/spectre/v8_0_1/lpmos/models/mos/nmc_mos2.scs

Reading file: 
        /pkg/xfab/XKIT/xh018/cadence/v8_0/spectre/v8_0_1/lpmos/models/mos/nmc_bjt.scs

Reading file: 
        /pkg/xfab/XKIT/xh018/cadence/v8_0/spectre/v8_0_1/lpmos/models/mos/nma.scs

Reading file: 
        /pkg/xfab/XKIT/xh018/cadence/v8_0/spectre/v8_0_1/lpmos/models/mos/nma_bjt.scs

Reading file: 
        /pkg/xfab/XKIT/xh018/cadence/v8_0/spectre/v8_0_1/lpmos/models/mos/phv.scs

Reading file: 
        /pkg/xfab/XKIT/xh018/cadence/v8_0/spectre/v8_0_1/lpmos/models/mos/phv_mos2.scs

Reading file: 
        /pkg/xfab/XKIT/xh018/cadence/v8_0/spectre/v8_0_1/lpmos/models/mos/phv_bjt.scs

Reading file: 
        /pkg/xfab/XKIT/xh018/cadence/v8_0/spectre/v8_0_1/lpmos/models/mos/phhv.scs

Reading file: 
        /pkg/xfab/XKIT/xh018/cadence/v8_0/spectre/v8_0_1/lpmos/models/mos/phhv_mos2.scs

Reading file: 
        /pkg/xfab/XKIT/xh018/cadence/v8_0/spectre/v8_0_1/lpmos/models/mos/phhv_bjt.scs

Reading file: 
        /pkg/xfab/XKIT/xh018/cadence/v8_0/spectre/v8_0_1/lpmos/models/mos/pmc.scs

Reading file: 
        /pkg/xfab/XKIT/xh018/cadence/v8_0/spectre/v8_0_1/lpmos/models/mos/pmc_mos2.scs

Reading file: 
        /pkg/xfab/XKIT/xh018/cadence/v8_0/spectre/v8_0_1/lpmos/models/mos/pmc_bjt.scs

Reading file: 
        /pkg/xfab/XKIT/xh018/cadence/v8_0/spectre/v8_0_1/lpmos/models/mos/pmmc.scs

Reading file: 
        /pkg/xfab/XKIT/xh018/cadence/v8_0/spectre/v8_0_1/lpmos/models/mos/pmmc_mos2.scs

Reading file: 
        /pkg/xfab/XKIT/xh018/cadence/v8_0/spectre/v8_0_1/lpmos/models/mos/pmmc_bjt.scs

Reading file: 
        /pkg/xfab/XKIT/xh018/cadence/v8_0/spectre/v8_0_1/lpmos/models/mos/pma.scs

Reading file: 
        /pkg/xfab/XKIT/xh018/cadence/v8_0/spectre/v8_0_1/lpmos/models/mos/pma_bjt.scs

Reading file: 
        /pkg/xfab/XKIT/xh018/cadence/v8_0/spectre/v8_0_1/lpmos/models/mos/pmb.scs

Reading file: 
        /pkg/xfab/XKIT/xh018/cadence/v8_0/spectre/v8_0_1/lpmos/models/mos/nesvt.scs

Reading file: 
        /pkg/xfab/XKIT/xh018/cadence/v8_0/spectre/v8_0_1/lpmos/models/mos/nesvti.scs

Reading file: 
        /pkg/xfab/XKIT/xh018/cadence/v8_0/spectre/v8_0_1/lpmos/models/mos/nesvti_6.scs

Reading file: 
        /pkg/xfab/XKIT/xh018/cadence/v8_0/spectre/v8_0_1/lpmos/models/mos/nesvti_m_6.scs

Reading file: 
        /pkg/xfab/XKIT/xh018/cadence/v8_0/spectre/v8_0_1/lpmos/models/mos/pesvt.scs

Reading file: 
        /pkg/xfab/XKIT/xh018/cadence/v8_0/spectre/v8_0_1/lpmos/models/mos/pesvt_5.scs

Reading file: 
        /pkg/xfab/XKIT/xh018/cadence/v8_0/spectre/v8_0_1/lpmos/models/mos/pesvti.scs

Reading file: 
        /pkg/xfab/XKIT/xh018/cadence/v8_0/spectre/v8_0_1/lpmos/models/mos/pesvti_5.scs

Reading file: 
        /pkg/xfab/XKIT/xh018/cadence/v8_0/spectre/v8_0_1/lpmos/models/mos/pesvti_m_5.scs

Reading file: 
        /pkg/xfab/XKIT/xh018/cadence/v8_0/spectre/v8_0_1/lpmos/models/mos/nhvd.scs

Reading file: 
        /pkg/xfab/XKIT/xh018/cadence/v8_0/spectre/v8_0_1/lpmos/models/mos/nhvd_bjt.scs

Reading file: 
        /pkg/xfab/XKIT/xh018/cadence/v8_0/spectre/v8_0_1/lpmos/models/mos/nhhvd.scs

Reading file: 
        /pkg/xfab/XKIT/xh018/cadence/v8_0/spectre/v8_0_1/lpmos/models/mos/nhhvd_bjt.scs

Reading file: 
        /pkg/xfab/XKIT/xh018/cadence/v8_0/spectre/v8_0_1/lpmos/photo.scs

Reading file: 
        /pkg/xfab/XKIT/xh018/cadence/v8_0/spectre/v8_0_1/lpmos/models/photo/tm_pho.scs

Reading file: 
        /pkg/xfab/XKIT/xh018/cadence/v8_0/spectre/v8_0_1/lpmos/models/photo/dphoa.scs

Reading file: 
        /pkg/xfab/XKIT/xh018/cadence/v8_0/spectre/v8_0_1/lpmos/models/photo/dpho.va

Reading link: 
        /pkg/cadence/installs/SPECTRE181/tools.lnx86/spectre/etc/ahdl/discipline.h

Reading file: 
        /pkg/cadence/installs/SPECTRE181/tools.lnx86/spectre/etc/ahdl/disciplines.vams

Reading link: 
        /pkg/cadence/installs/SPECTRE181/tools.lnx86/spectre/etc/ahdl/constants.h

Reading file: 
        /pkg/cadence/installs/SPECTRE181/tools.lnx86/spectre/etc/ahdl/constants.vams

Reading file: 
        /pkg/xfab/XKIT/xh018/cadence/v8_0/spectre/v8_0_1/lpmos/models/photo/dphob.scs

Reading file: 
        /pkg/xfab/XKIT/xh018/cadence/v8_0/spectre/v8_0_1/lpmos/models/photo/dphoc.scs

Reading file: 
        /pkg/xfab/XKIT/xh018/cadence/v8_0/spectre/v8_0_1/lpmos/models/photo/iphoto_uv.va

Reading file: 
        /pkg/xfab/XKIT/xh018/cadence/v8_0/spectre/v8_0_1/lpmos/models/photo/dphoc_cat.scs

Reading file: 
        /pkg/xfab/XKIT/xh018/cadence/v8_0/spectre/v8_0_1/lpmos/models/photo/dphoc0.scs

Reading file: 
        /pkg/xfab/XKIT/xh018/cadence/v8_0/spectre/v8_0_1/lpmos/models/photo/dphoc0_cat.scs

Reading file: 
        /pkg/xfab/XKIT/xh018/cadence/v8_0/spectre/v8_0_1/lpmos/models/photo/dphocfp.scs

Reading file: 
        /pkg/xfab/XKIT/xh018/cadence/v8_0/spectre/v8_0_1/lpmos/models/photo/dphocfp_cat.scs

Reading file: 
        /pkg/xfab/XKIT/xh018/cadence/v8_0/spectre/v8_0_1/lpmos/models/photo/dphod.scs

Reading file: 
        /pkg/xfab/XKIT/xh018/cadence/v8_0/spectre/v8_0_1/lpmos/models/photo/dphod_an1.scs

Reading file: 
        /pkg/xfab/XKIT/xh018/cadence/v8_0/spectre/v8_0_1/lpmos/models/photo/dphod_an2.scs

Reading file: 
        /pkg/xfab/XKIT/xh018/cadence/v8_0/spectre/v8_0_1/lpmos/models/photo/dphod0.scs

Reading file: 
        /pkg/xfab/XKIT/xh018/cadence/v8_0/spectre/v8_0_1/lpmos/models/photo/dphod0_an1.scs

Reading file: 
        /pkg/xfab/XKIT/xh018/cadence/v8_0/spectre/v8_0_1/lpmos/models/photo/dphod0_an2.scs

Reading file: 
        /pkg/xfab/XKIT/xh018/cadence/v8_0/spectre/v8_0_1/lpmos/models/photo/dphodfp.scs

Reading file: 
        /pkg/xfab/XKIT/xh018/cadence/v8_0/spectre/v8_0_1/lpmos/models/photo/dphodfp_an1.scs

Reading file: 
        /pkg/xfab/XKIT/xh018/cadence/v8_0/spectre/v8_0_1/lpmos/models/photo/dphodfp_an2.scs

Reading file: 
        /pkg/xfab/XKIT/xh018/cadence/v8_0/spectre/v8_0_1/lpmos/models/photo/dspada.scs

Reading file: 
        /pkg/xfab/XKIT/xh018/cadence/v8_0/spectre/v8_0_1/lpmos/models/photo/ispad.va

Reading file: 
        /pkg/xfab/XKIT/xh018/cadence/v8_0/spectre/v8_0_1/lpmos/models/photo/dspada_cat.scs

Reading file: 
        /pkg/xfab/XKIT/xh018/cadence/v8_0/spectre/v8_0_1/lpmos/models/photo/dspada0.scs

Reading file: 
        /pkg/xfab/XKIT/xh018/cadence/v8_0/spectre/v8_0_1/lpmos/models/photo/dapda.scs

Reading file: 
        /pkg/xfab/XKIT/xh018/cadence/v8_0/spectre/v8_0_1/lpmos/models/photo/iphoto_apd.va

Reading file: 
        /pkg/xfab/XKIT/xh018/cadence/v8_0/spectre/v8_0_1/lpmos/models/photo/dapda_cat.scs

Reading file: 
        /pkg/xfab/XKIT/xh018/cadence/v8_0/spectre/v8_0_1/lpmos/models/photo/dapda0.scs

Reading file:  /pkg/xfab/XKIT/xh018/cadence/v8_0/spectre/v8_0_1/lpmos/res.scs

Reading file: 
        /pkg/xfab/XKIT/xh018/cadence/v8_0/spectre/v8_0_1/lpmos/models/res/tm_res.scs

Reading file: 
        /pkg/xfab/XKIT/xh018/cadence/v8_0/spectre/v8_0_1/lpmos/models/res/rdn.scs

Reading file: 
        /pkg/xfab/XKIT/xh018/cadence/v8_0/spectre/v8_0_1/lpmos/models/res/rdn_esd.scs

Reading file: 
        /pkg/xfab/XKIT/xh018/cadence/v8_0/spectre/v8_0_1/lpmos/models/res/rdp.scs

Reading file: 
        /pkg/xfab/XKIT/xh018/cadence/v8_0/spectre/v8_0_1/lpmos/models/res/rdp_io.scs

Reading file: 
        /pkg/xfab/XKIT/xh018/cadence/v8_0/spectre/v8_0_1/lpmos/models/res/rdp_esd.scs

Reading file: 
        /pkg/xfab/XKIT/xh018/cadence/v8_0/spectre/v8_0_1/lpmos/models/res/rnw.scs

Reading file: 
        /pkg/xfab/XKIT/xh018/cadence/v8_0/spectre/v8_0_1/lpmos/models/res/rnw_scr.scs

Reading file: 
        /pkg/xfab/XKIT/xh018/cadence/v8_0/spectre/v8_0_1/lpmos/models/res/rdn3.scs

Reading file: 
        /pkg/xfab/XKIT/xh018/cadence/v8_0/spectre/v8_0_1/lpmos/models/res/rdp3.scs

Reading file: 
        /pkg/xfab/XKIT/xh018/cadence/v8_0/spectre/v8_0_1/lpmos/models/res/rnw3.scs

Reading file: 
        /pkg/xfab/XKIT/xh018/cadence/v8_0/spectre/v8_0_1/lpmos/models/res/rnw3_scr.scs

Reading file: 
        /pkg/xfab/XKIT/xh018/cadence/v8_0/spectre/v8_0_1/lpmos/models/res/rdnwmv.scs

Reading file: 
        /pkg/xfab/XKIT/xh018/cadence/v8_0/spectre/v8_0_1/lpmos/models/res/rnp1.scs

Reading file: 
        /pkg/xfab/XKIT/xh018/cadence/v8_0/spectre/v8_0_1/lpmos/models/res/rnp1_3.scs

Reading file: 
        /pkg/xfab/XKIT/xh018/cadence/v8_0/spectre/v8_0_1/lpmos/models/res/rpp1.scs

Reading file: 
        /pkg/xfab/XKIT/xh018/cadence/v8_0/spectre/v8_0_1/lpmos/models/res/rpp1_3.scs

Reading file: 
        /pkg/xfab/XKIT/xh018/cadence/v8_0/spectre/v8_0_1/lpmos/models/res/rpp1s.scs

Reading file: 
        /pkg/xfab/XKIT/xh018/cadence/v8_0/spectre/v8_0_1/lpmos/models/res/rpp1s_3.scs

Reading file: 
        /pkg/xfab/XKIT/xh018/cadence/v8_0/spectre/v8_0_1/lpmos/models/res/rnp1h.scs

Reading file: 
        /pkg/xfab/XKIT/xh018/cadence/v8_0/spectre/v8_0_1/lpmos/models/res/rnp1h_3.scs

Reading file: 
        /pkg/xfab/XKIT/xh018/cadence/v8_0/spectre/v8_0_1/lpmos/models/res/rpp1k1.scs

Reading file: 
        /pkg/xfab/XKIT/xh018/cadence/v8_0/spectre/v8_0_1/lpmos/models/res/rpp1k1_3.scs

Reading file: 
        /pkg/xfab/XKIT/xh018/cadence/v8_0/spectre/v8_0_1/lpmos/models/res/rctdn.scs

Reading file: 
        /pkg/xfab/XKIT/xh018/cadence/v8_0/spectre/v8_0_1/lpmos/models/res/rctdp.scs

Reading file: 
        /pkg/xfab/XKIT/xh018/cadence/v8_0/spectre/v8_0_1/lpmos/models/res/rctp1.scs

Reading file: 
        /pkg/xfab/XKIT/xh018/cadence/v8_0/spectre/v8_0_1/lpmos/models/res/rsildn.scs

Reading file: 
        /pkg/xfab/XKIT/xh018/cadence/v8_0/spectre/v8_0_1/lpmos/models/res/rsildp.scs

Reading file: 
        /pkg/xfab/XKIT/xh018/cadence/v8_0/spectre/v8_0_1/lpmos/models/res/rsilnp1.scs

Reading file: 
        /pkg/xfab/XKIT/xh018/cadence/v8_0/spectre/v8_0_1/lpmos/models/res/rsilpp1.scs

Reading file: 
        /pkg/xfab/XKIT/xh018/cadence/v8_0/spectre/v8_0_1/lpmos/models/res/rsbdn.scs

Reading file: 
        /pkg/xfab/XKIT/xh018/cadence/v8_0/spectre/v8_0_1/lpmos/models/res/rsbdp.scs

Reading file: 
        /pkg/xfab/XKIT/xh018/cadence/v8_0/spectre/v8_0_1/lpmos/models/res/rsbdn3.scs

Reading file: 
        /pkg/xfab/XKIT/xh018/cadence/v8_0/spectre/v8_0_1/lpmos/models/res/rsbdp3.scs

Reading file: 
        /pkg/xfab/XKIT/xh018/cadence/v8_0/spectre/v8_0_1/lpmos/models/res/rsbnp1.scs

Reading file: 
        /pkg/xfab/XKIT/xh018/cadence/v8_0/spectre/v8_0_1/lpmos/models/res/rsbpp1.scs

Reading file: 
        /pkg/xfab/XKIT/xh018/cadence/v8_0/spectre/v8_0_1/lpmos/models/res/rsbpp1k1.scs

Reading file: 
        /pkg/xfab/XKIT/xh018/cadence/v8_0/spectre/v8_0_1/lpmos/models/res/rm1.scs

Reading file: 
        /pkg/xfab/XKIT/xh018/cadence/v8_0/spectre/v8_0_1/lpmos/models/res/rm2.scs

Reading file: 
        /pkg/xfab/XKIT/xh018/cadence/v8_0/spectre/v8_0_1/lpmos/models/res/rm3.scs

Reading file: 
        /pkg/xfab/XKIT/xh018/cadence/v8_0/spectre/v8_0_1/lpmos/models/res/rm4.scs

Reading file: 
        /pkg/xfab/XKIT/xh018/cadence/v8_0/spectre/v8_0_1/lpmos/models/res/rm5.scs

Reading file: 
        /pkg/xfab/XKIT/xh018/cadence/v8_0/spectre/v8_0_1/lpmos/models/res/rmtp.scs

Reading file: 
        /pkg/xfab/XKIT/xh018/cadence/v8_0/spectre/v8_0_1/lpmos/models/res/rmtpl.scs

Reading file: 
        /pkg/xfab/XKIT/xh018/cadence/v8_0/spectre/v8_0_1/lpmos/models/res/pfuse.scs

Reading file: 
        /pkg/xfab/XKIT/xh018/cadence/v8_0/spectre/v8_0_1/lpmos/models/res/s_res.scs

Time for NDB Parsing: CPU = 524.545 ms, elapsed = 611.301 ms.

Time accumulated: CPU = 590.773 ms, elapsed = 611.314 ms.

Peak resident memory used = 72.7 Mbytes.




Warning from spectre in `LS_LowSide_V2_ST', during circuit read-in.
    WARNING (SFE-2453): The global node `0' and sub circuit terminal `0' will
        be treated as the sub circuit terminal.

    WARNING (SFE-2453): The global node `vdd3!' and sub circuit terminal
        `vdd3!' will be treated as the sub circuit terminal.

    WARNING (SFE-2453): The global node `vdde!' and sub circuit terminal
        `vdde!' will be treated as the sub circuit terminal.

Warning from spectre in `LS_HighSide_V3_ST', during circuit read-in.

    WARNING (SFE-2453): The global node `0' and sub circuit terminal `0' will
        be treated as the sub circuit terminal.

    WARNING (SFE-2453): The global node `vdd3!' and sub circuit terminal
        `vdd3!' will be treated as the sub circuit terminal.

        Further occurrences of this warning will be suppressed.


Time for Elaboration: CPU = 59.688 ms, elapsed = 59.6881 ms.

Time accumulated: CPU = 650.608 ms, elapsed = 671.148 ms.

Peak resident memory used = 83.4 Mbytes.





Warning from spectre during hierarchy flattening.

    WARNING (SPECTRE-17101): The value 'psf' specified using the
        'checklimitdest' option will no longer be supported in future
        releases.




Time for EDB Visiting: CPU = 10.983 ms, elapsed = 10.983 ms.
Time accumulated: CPU = 661.739 ms, elapsed = 682.279 ms.

Peak resident memory used = 85.3 Mbytes.



Notice from spectre during initial setup.
    I28.M13.nedia_bjtmod: Hisim_hv version 2.10 used. Version: 2, Subversion: 1
        and Revision: 0. Type is N.

    M25.ped_bjtmod: Hisim_hv version 2.10 used. Version: 2, Subversion: 1 and
        Revision: 0. Type is P.

    M11.ped_bjtmod: Hisim_hv version 2.10 used. Version: 2, Subversion: 1 and
        Revision: 0. Type is P.

    I32.M1.ped_bjtmod: Hisim_hv version 2.10 used. Version: 2, Subversion: 1
        and Revision: 0. Type is P.

    M16.nedia_bjtmod: Hisim_hv version 2.10 used. Version: 2, Subversion: 1 and
        Revision: 0. Type is N.

        Further occurrences of this notice will be suppressed (except in log
        file).


Global user options:
         psfversion = 1.1.0

            vabstol = 1e-06

            iabstol = 1e-12

               temp = 27

           homotopy = 7

              limit = delta

         compatible = spice2

               gmin = 1e-12

             rforce = 1

           maxnotes = 5

           maxwarns = 5

             digits = 5

               cols = 80

             pivrel = 0.001

           sensfile = ../psf/sens.output

     checklimitdest = psf

               save = allpub

             reltol = 0.0001

               tnom = 27

             scalem = 1

              scale = 1


Scoped user options:


Circuit inventory:

              nodes 228

                bjt 27    

            bsim3v3 163   

          capacitor 80    

           hisim_hv 27    

            isource 1     

           resistor 105   

            vsource 12    


Analysis and control statement inventory:

                 dc 1     

               info 7     


Output statements:

             .probe 0     

           .measure 0     

               save 0     





Notice from spectre.

    6 notices suppressed.

    1 warning suppressed.



Time for parsing: CPU = 7.75 ms, elapsed = 12.1281 ms.

Time accumulated: CPU = 669.617 ms, elapsed = 694.535 ms.

Peak resident memory used = 87.5 Mbytes.



~~~~~~~~~~~~~~~~~~~~~~
Pre-Simulation Summary
~~~~~~~~~~~~~~~~~~~~~~

~~~~~~~~~~~~~~~~~~~~~~


******************
DC Analysis `dcOp'
******************


Opening the PSF file ../psf/dcOp.dc ...

Important parameter values:

    reltol = 100e-06

    abstol(V) = 1 uV

    abstol(I) = 1 pA

    temp = 27 C

    tnom = 27 C

    tempeffects = all

    gmindc = 1 pS

Trying `homotopy = gmin'.


Notice from spectre during DC analysis `dcOp'.
    GminDC = 1 pS is large enough to noticeably affect the DC solution.

        dV(M16.m1:int_d) = -77.8792 mV
        Use the `gmin_check' option to eliminate or expand this report.
    Bad pivoting is found during DC analysis. Option dc_pivot_check=yes is
        recommended for possible improvement of convergence.



Maximum value achieved for any signal of each quantity: 
V: V(vddh) = 40 V

I: I(V0:p) = 299.3 uA

Convergence achieved in 475 iterations.

DC simulation time: CPU = 179.561 ms, elapsed = 183.006 ms.

Total time required for dc analysis `dcOp': CPU = 179.618 ms, elapsed = 183.059
        ms.

Time accumulated: CPU = 853.986 ms, elapsed = 882.347 ms.

Peak resident memory used = 89.8 Mbytes.



dcOpInfo: writing operating point information to rawfile.


Opening the PSF file ../psf/dcOpInfo.info ...

modelParameter: writing model parameter values to rawfile.


Opening the PSF file ../psf/modelParameter.info ...

element: writing instance parameter values to rawfile.


Opening the PSF file ../psf/element.info ...

outputParameter: writing output parameter values to rawfile.


Opening the PSF file ../psf/outputParameter.info ...

designParamVals: writing netlist parameters to rawfile.


Opening the PSFASCII file ../psf/designParamVals.info ...

primitives: writing primitives to rawfile.


Opening the PSFASCII file ../psf/primitives.info.primitives ...

subckts: writing subcircuits to rawfile.


Opening the PSFASCII file ../psf/subckts.info.subckts ...


Aggregate audit (10:17:47 AM, Tue Apr 6, 2021):

Time used: CPU = 906 ms, elapsed = 963 ms, util. = 94.2%.

Time spent in licensing: elapsed = 135 ms, percentage of total = 14%.

Peak memory used = 91.9 Mbytes.

Simulation started at: 10:17:46 AM, Tue Apr 6, 2021, ended at: 10:17:47 AM, Tue
        Apr 6, 2021, with elapsed time (wall clock): 963 ms.

spectre completes with 0 errors, 6 warnings, and 10 notices.

reading simulation data...
      ...successful.
