
Spectre (R) Circuit Simulator
Version 18.1.0.516.isr12 64bit -- 25 Oct 2019
Copyright (C) 1989-2019 Cadence Design Systems, Inc. All rights reserved worldwide. Cadence and Spectre are registered trademarks of Cadence Design Systems, Inc. All others are the property of their respective holders.

Includes RSA BSAFE(R) Cryptographic or Security Protocol Software from RSA Security, Inc.

User: ykhuang   Host: s2424   HostID: ED824314   PID: 6038
Memory  available: 35.6075 GB  physical: 67.2863 GB
Linux   : CentOS Linux release 7.9.2009 (Core)
CPU Type: Intel(R) Xeon(R) CPU E5-2630 v3 @ 2.40GHz
        Socket: Processors [Frequency] (Hyperthreaded Processor)
        0:       0 [1326.9] ( 16 ),  1 [1369.3] ( 17 ),  2 [1200.0] ( 18 )
                 3 [1206.0] ( 19 ),  4 [1200.0] ( 20 ),  5 [1199.9] ( 21 )
                 6 [1200.0] ( 22 ),  7 [1299.5] ( 23 )
        1:       8 [1200.0] ( 24 ),  9 [1200.0] ( 25 ), 10 [1279.4] ( 26 )
                11 [1504.0] ( 27 ), 12 [1300.5] ( 28 ), 13 [1558.7] ( 29 )
                14 [1537.1] ( 30 ), 15 [1300.0] ( 31 )
        
System load averages (1min, 5min, 15min) : 0.3 %, 0.2 %, 0.2 %
Hyperthreading is enabled


Simulating `input.scs' on s2424 at 4:34:47 PM, Tue May 4, 2021 (process id: 6038).
Current working directory: /home/ykhuang/research/Sim/TB_Compliance_voltage/spectre/schematic/netlist
Command line:
    /pkg/cadence/installs/SPECTRE181/tools/bin/spectre -64 input.scs  \
        +escchars +log ../psf/spectre.out -format psfxl -raw ../psf  \
        +lqtimeout 900 -maxw 5 -maxn 5 -env ade

Loading /pkg/cadence/installs/SPECTRE181/tools.lnx86/cmi/lib/64bit/5.0/libinfineon_sh.so ...
Loading /pkg/cadence/installs/SPECTRE181/tools.lnx86/cmi/lib/64bit/5.0/libphilips_o_sh.so ...
Loading /pkg/cadence/installs/SPECTRE181/tools.lnx86/cmi/lib/64bit/5.0/libphilips_sh.so ...
Loading /pkg/cadence/installs/SPECTRE181/tools.lnx86/cmi/lib/64bit/5.0/libsparam_sh.so ...
Loading /pkg/cadence/installs/SPECTRE181/tools.lnx86/cmi/lib/64bit/5.0/libstmodels_sh.so ...
Reading file:  /home/ykhuang/research/Sim/TB_Compliance_voltage/spectre/schematic/netlist/input.scs
Reading file:  /pkg/cadence/installs/SPECTRE181/tools.lnx86/spectre/etc/configs/spectre.cfg
Reading file:  /pkg/xfab/XKIT/xh018/cadence/v8_0/spectre/v8_0_1/lpmos/config.scs
Reading file:  /pkg/xfab/XKIT/xh018/cadence/v8_0/spectre/v8_0_1/lpmos/param.scs
Reading file:  /pkg/xfab/XKIT/xh018/cadence/v8_0/spectre/v8_0_1/lpmos/bip.scs
Reading file:  /pkg/xfab/XKIT/xh018/cadence/v8_0/spectre/v8_0_1/lpmos/models/bip/tm_bip.scs
Reading file:  /pkg/xfab/XKIT/xh018/cadence/v8_0/spectre/v8_0_1/lpmos/models/bip/qpva.scs
Reading file:  /pkg/xfab/XKIT/xh018/cadence/v8_0/spectre/v8_0_1/lpmos/models/bip/qpvb.scs
Reading file:  /pkg/xfab/XKIT/xh018/cadence/v8_0/spectre/v8_0_1/lpmos/models/bip/qpvc.scs
Reading file:  /pkg/xfab/XKIT/xh018/cadence/v8_0/spectre/v8_0_1/lpmos/models/bip/qpva3.scs
Reading file:  /pkg/xfab/XKIT/xh018/cadence/v8_0/spectre/v8_0_1/lpmos/models/bip/qpvb3.scs
Reading file:  /pkg/xfab/XKIT/xh018/cadence/v8_0/spectre/v8_0_1/lpmos/models/bip/qpvc3.scs
Reading file:  /pkg/xfab/XKIT/xh018/cadence/v8_0/spectre/v8_0_1/lpmos/models/bip/qnva.scs
Reading file:  /pkg/xfab/XKIT/xh018/cadence/v8_0/spectre/v8_0_1/lpmos/models/bip/qnvb.scs
Reading file:  /pkg/xfab/XKIT/xh018/cadence/v8_0/spectre/v8_0_1/lpmos/models/bip/qnvb_npn.scs
Reading file:  /pkg/xfab/XKIT/xh018/cadence/v8_0/spectre/v8_0_1/lpmos/models/bip/qnvb_pnp.scs
Reading file:  /pkg/xfab/XKIT/xh018/cadence/v8_0/spectre/v8_0_1/lpmos/models/bip/qnvc.scs
Reading file:  /pkg/xfab/XKIT/xh018/cadence/v8_0/spectre/v8_0_1/lpmos/models/bip/qnvc_npn.scs
Reading file:  /pkg/xfab/XKIT/xh018/cadence/v8_0/spectre/v8_0_1/lpmos/models/bip/qnvc_pnp.scs
Reading file:  /pkg/xfab/XKIT/xh018/cadence/v8_0/spectre/v8_0_1/lpmos/models/bip/qpvhscr.scs
Reading file:  /pkg/xfab/XKIT/xh018/cadence/v8_0/spectre/v8_0_1/lpmos/models/bip/qpvascr.scs
Reading file:  /pkg/xfab/XKIT/xh018/cadence/v8_0/spectre/v8_0_1/lpmos/models/bip/qpvhbscr.scs
Reading file:  /pkg/xfab/XKIT/xh018/cadence/v8_0/spectre/v8_0_1/lpmos/models/bip/qpv_pa.scs
Reading file:  /pkg/xfab/XKIT/xh018/cadence/v8_0/spectre/v8_0_1/lpmos/models/bip/qpv_pb.scs
Reading file:  /pkg/xfab/XKIT/xh018/cadence/v8_0/spectre/v8_0_1/lpmos/models/bip/qpv_pc.scs
Reading file:  /pkg/xfab/XKIT/xh018/cadence/v8_0/spectre/v8_0_1/lpmos/models/bip/qpv_pd.scs
Reading file:  /pkg/xfab/XKIT/xh018/cadence/v8_0/spectre/v8_0_1/lpmos/models/bip/qpv_pe.scs
Reading file:  /pkg/xfab/XKIT/xh018/cadence/v8_0/spectre/v8_0_1/lpmos/models/bip/qpv_pf.scs
Reading file:  /pkg/xfab/XKIT/xh018/cadence/v8_0/spectre/v8_0_1/lpmos/models/bip/qpl_pa.scs
Reading file:  /pkg/xfab/XKIT/xh018/cadence/v8_0/spectre/v8_0_1/lpmos/models/bip/qpl_pb.scs
Reading file:  /pkg/xfab/XKIT/xh018/cadence/v8_0/spectre/v8_0_1/lpmos/models/bip/qpl_pc.scs
Reading file:  /pkg/xfab/XKIT/xh018/cadence/v8_0/spectre/v8_0_1/lpmos/models/bip/qpl_pd.scs
Reading file:  /pkg/xfab/XKIT/xh018/cadence/v8_0/spectre/v8_0_1/lpmos/models/bip/qpl_pe.scs
Reading file:  /pkg/xfab/XKIT/xh018/cadence/v8_0/spectre/v8_0_1/lpmos/models/bip/qpl_pf.scs
Reading file:  /pkg/xfab/XKIT/xh018/cadence/v8_0/spectre/v8_0_1/lpmos/models/bip/qnl_pa.scs
Reading file:  /pkg/xfab/XKIT/xh018/cadence/v8_0/spectre/v8_0_1/lpmos/models/bip/qnl_pb.scs
Reading file:  /pkg/xfab/XKIT/xh018/cadence/v8_0/spectre/v8_0_1/lpmos/models/bip/qnl_pc.scs
Reading file:  /pkg/xfab/XKIT/xh018/cadence/v8_0/spectre/v8_0_1/lpmos/models/bip/qnl_pd.scs
Reading file:  /pkg/xfab/XKIT/xh018/cadence/v8_0/spectre/v8_0_1/lpmos/models/bip/qnl_pe.scs
Reading file:  /pkg/xfab/XKIT/xh018/cadence/v8_0/spectre/v8_0_1/lpmos/models/bip/qnl_pf.scs
Reading file:  /pkg/xfab/XKIT/xh018/cadence/v8_0/spectre/v8_0_1/lpmos/cap.scs
Reading file:  /pkg/xfab/XKIT/xh018/cadence/v8_0/spectre/v8_0_1/lpmos/models/cap/tm_cap.scs
Reading file:  /pkg/xfab/XKIT/xh018/cadence/v8_0/spectre/v8_0_1/lpmos/models/cap/csandwt3.scs
Reading file:  /pkg/xfab/XKIT/xh018/cadence/v8_0/spectre/v8_0_1/lpmos/models/cap/csandwt4.scs
Reading file:  /pkg/xfab/XKIT/xh018/cadence/v8_0/spectre/v8_0_1/lpmos/models/cap/csandwt5.scs
Reading file:  /pkg/xfab/XKIT/xh018/cadence/v8_0/spectre/v8_0_1/lpmos/models/cap/csf2p.scs
Reading file:  /pkg/xfab/XKIT/xh018/cadence/v8_0/spectre/v8_0_1/lpmos/models/cap/csf3p.scs
Reading file:  /pkg/xfab/XKIT/xh018/cadence/v8_0/spectre/v8_0_1/lpmos/models/cap/csf3.scs
Reading file:  /pkg/xfab/XKIT/xh018/cadence/v8_0/spectre/v8_0_1/lpmos/models/cap/csf4.scs
Reading file:  /pkg/xfab/XKIT/xh018/cadence/v8_0/spectre/v8_0_1/lpmos/models/cap/csf5.scs
Reading file:  /pkg/xfab/XKIT/xh018/cadence/v8_0/spectre/v8_0_1/lpmos/models/cap/csft4.scs
Reading file:  /pkg/xfab/XKIT/xh018/cadence/v8_0/spectre/v8_0_1/lpmos/models/cap/csft5.scs
Reading file:  /pkg/xfab/XKIT/xh018/cadence/v8_0/spectre/v8_0_1/lpmos/models/cap/csft6.scs
Reading file:  /pkg/xfab/XKIT/xh018/cadence/v8_0/spectre/v8_0_1/lpmos/models/cap/csf3a.scs
Reading file:  /pkg/xfab/XKIT/xh018/cadence/v8_0/spectre/v8_0_1/lpmos/models/cap/csf4a.scs
Reading file:  /pkg/xfab/XKIT/xh018/cadence/v8_0/spectre/v8_0_1/lpmos/models/cap/csf5a.scs
Reading file:  /pkg/xfab/XKIT/xh018/cadence/v8_0/spectre/v8_0_1/lpmos/models/cap/csft4a.scs
Reading file:  /pkg/xfab/XKIT/xh018/cadence/v8_0/spectre/v8_0_1/lpmos/models/cap/csft5a.scs
Reading file:  /pkg/xfab/XKIT/xh018/cadence/v8_0/spectre/v8_0_1/lpmos/models/cap/csft6a.scs
Reading file:  /pkg/xfab/XKIT/xh018/cadence/v8_0/spectre/v8_0_1/lpmos/models/cap/cmm3.scs
Reading file:  /pkg/xfab/XKIT/xh018/cadence/v8_0/spectre/v8_0_1/lpmos/models/cap/cmm4t.scs
Reading file:  /pkg/xfab/XKIT/xh018/cadence/v8_0/spectre/v8_0_1/lpmos/models/cap/cmm4.scs
Reading file:  /pkg/xfab/XKIT/xh018/cadence/v8_0/spectre/v8_0_1/lpmos/models/cap/cmm5t.scs
Reading file:  /pkg/xfab/XKIT/xh018/cadence/v8_0/spectre/v8_0_1/lpmos/models/cap/cmm6t.scs
Reading file:  /pkg/xfab/XKIT/xh018/cadence/v8_0/spectre/v8_0_1/lpmos/models/cap/cdmm4.scs
Reading file:  /pkg/xfab/XKIT/xh018/cadence/v8_0/spectre/v8_0_1/lpmos/models/cap/cdmm4t.scs
Reading file:  /pkg/xfab/XKIT/xh018/cadence/v8_0/spectre/v8_0_1/lpmos/models/cap/ctmm5.scs
Reading file:  /pkg/xfab/XKIT/xh018/cadence/v8_0/spectre/v8_0_1/lpmos/models/cap/ctmm5t.scs
Reading file:  /pkg/xfab/XKIT/xh018/cadence/v8_0/spectre/v8_0_1/lpmos/models/cap/cmmh3.scs
Reading file:  /pkg/xfab/XKIT/xh018/cadence/v8_0/spectre/v8_0_1/lpmos/models/cap/cmmh4t.scs
Reading file:  /pkg/xfab/XKIT/xh018/cadence/v8_0/spectre/v8_0_1/lpmos/models/cap/cmmh4.scs
Reading file:  /pkg/xfab/XKIT/xh018/cadence/v8_0/spectre/v8_0_1/lpmos/models/cap/cmmh5t.scs
Reading file:  /pkg/xfab/XKIT/xh018/cadence/v8_0/spectre/v8_0_1/lpmos/models/cap/cmmh6t.scs
Reading file:  /pkg/xfab/XKIT/xh018/cadence/v8_0/spectre/v8_0_1/lpmos/models/cap/cdmmh4.scs
Reading file:  /pkg/xfab/XKIT/xh018/cadence/v8_0/spectre/v8_0_1/lpmos/models/cap/cdmmh4t.scs
Reading file:  /pkg/xfab/XKIT/xh018/cadence/v8_0/spectre/v8_0_1/lpmos/models/cap/ctmmh5.scs
Reading file:  /pkg/xfab/XKIT/xh018/cadence/v8_0/spectre/v8_0_1/lpmos/models/cap/ctmmh5t.scs
Reading file:  /pkg/xfab/XKIT/xh018/cadence/v8_0/spectre/v8_0_1/lpmos/models/cap/mosvc.scs
Reading file:  /pkg/xfab/XKIT/xh018/cadence/v8_0/spectre/v8_0_1/lpmos/models/cap/mosvc_pmos.scs
Reading file:  /pkg/xfab/XKIT/xh018/cadence/v8_0/spectre/v8_0_1/lpmos/models/cap/mosvci.scs
Reading file:  /pkg/xfab/XKIT/xh018/cadence/v8_0/spectre/v8_0_1/lpmos/models/cap/mosvci_nmos.scs
Reading file:  /pkg/xfab/XKIT/xh018/cadence/v8_0/spectre/v8_0_1/lpmos/models/cap/mosvci_m.scs
Reading file:  /pkg/xfab/XKIT/xh018/cadence/v8_0/spectre/v8_0_1/lpmos/models/cap/mosvc3.scs
Reading file:  /pkg/xfab/XKIT/xh018/cadence/v8_0/spectre/v8_0_1/lpmos/models/cap/mosvc3_pmos.scs
Reading file:  /pkg/xfab/XKIT/xh018/cadence/v8_0/spectre/v8_0_1/lpmos/models/cap/mosvc3i.scs
Reading file:  /pkg/xfab/XKIT/xh018/cadence/v8_0/spectre/v8_0_1/lpmos/models/cap/mosvc3i_nmos.scs
Reading file:  /pkg/xfab/XKIT/xh018/cadence/v8_0/spectre/v8_0_1/lpmos/models/cap/mosvc3i_m.scs
Reading file:  /pkg/xfab/XKIT/xh018/cadence/v8_0/spectre/v8_0_1/lpmos/models/cap/cpod.scs
Reading file:  /pkg/xfab/XKIT/xh018/cadence/v8_0/spectre/v8_0_1/lpmos/models/cap/cpod_i.scs
Reading file:  /pkg/xfab/XKIT/xh018/cadence/v8_0/spectre/v8_0_1/lpmos/models/cap/cpodhv.scs
Reading file:  /pkg/xfab/XKIT/xh018/cadence/v8_0/spectre/v8_0_1/lpmos/models/cap/cpodhv_i.scs
Reading file:  /pkg/xfab/XKIT/xh018/cadence/v8_0/spectre/v8_0_1/lpmos/models/cap/cp1sub.scs
Reading file:  /pkg/xfab/XKIT/xh018/cadence/v8_0/spectre/v8_0_1/lpmos/models/cap/cp1suba.scs
Reading file:  /pkg/xfab/XKIT/xh018/cadence/v8_0/spectre/v8_0_1/lpmos/models/cap/cp1subp.scs
Reading file:  /pkg/xfab/XKIT/xh018/cadence/v8_0/spectre/v8_0_1/lpmos/models/cap/tag_25v.scs
Reading file:  /pkg/xfab/XKIT/xh018/cadence/v8_0/spectre/v8_0_1/lpmos/models/cap/tag_60v.scs
Reading file:  /pkg/xfab/XKIT/xh018/cadence/v8_0/spectre/v8_0_1/lpmos/dio.scs
Reading file:  /pkg/xfab/XKIT/xh018/cadence/v8_0/spectre/v8_0_1/lpmos/models/dio/tm_dio.scs
Reading file:  /pkg/xfab/XKIT/xh018/cadence/v8_0/spectre/v8_0_1/lpmos/models/dio/dn.scs
Reading file:  /pkg/xfab/XKIT/xh018/cadence/v8_0/spectre/v8_0_1/lpmos/models/dio/dp.scs
Reading file:  /pkg/xfab/XKIT/xh018/cadence/v8_0/spectre/v8_0_1/lpmos/models/dio/dnw.scs
Reading file:  /pkg/xfab/XKIT/xh018/cadence/v8_0/spectre/v8_0_1/lpmos/models/dio/dn3.scs
Reading file:  /pkg/xfab/XKIT/xh018/cadence/v8_0/spectre/v8_0_1/lpmos/models/dio/dnn3.scs
Reading file:  /pkg/xfab/XKIT/xh018/cadence/v8_0/spectre/v8_0_1/lpmos/models/dio/dp3.scs
Reading file:  /pkg/xfab/XKIT/xh018/cadence/v8_0/spectre/v8_0_1/lpmos/models/dio/dnw3.scs
Reading file:  /pkg/xfab/XKIT/xh018/cadence/v8_0/spectre/v8_0_1/lpmos/models/dio/ddnwmv.scs
Reading file:  /pkg/xfab/XKIT/xh018/cadence/v8_0/spectre/v8_0_1/lpmos/models/dio/dpdnwmv.scs
Reading file:  /pkg/xfab/XKIT/xh018/cadence/v8_0/spectre/v8_0_1/lpmos/models/dio/dipdnwmv.scs
Reading file:  /pkg/xfab/XKIT/xh018/cadence/v8_0/spectre/v8_0_1/lpmos/models/dio/ddnw.scs
Reading file:  /pkg/xfab/XKIT/xh018/cadence/v8_0/spectre/v8_0_1/lpmos/models/dio/dpdnw.scs
Reading file:  /pkg/xfab/XKIT/xh018/cadence/v8_0/spectre/v8_0_1/lpmos/models/dio/dipdnw.scs
Reading file:  /pkg/xfab/XKIT/xh018/cadence/v8_0/spectre/v8_0_1/lpmos/models/dio/dnhpw.scs
Reading file:  /pkg/xfab/XKIT/xh018/cadence/v8_0/spectre/v8_0_1/lpmos/models/dio/dnhpwa.scs
Reading file:  /pkg/xfab/XKIT/xh018/cadence/v8_0/spectre/v8_0_1/lpmos/models/dio/dphnw.scs
Reading file:  /pkg/xfab/XKIT/xh018/cadence/v8_0/spectre/v8_0_1/lpmos/models/dio/dphnwa.scs
Reading file:  /pkg/xfab/XKIT/xh018/cadence/v8_0/spectre/v8_0_1/lpmos/models/dio/dhpw.scs
Reading file:  /pkg/xfab/XKIT/xh018/cadence/v8_0/spectre/v8_0_1/lpmos/models/dio/dhnw.scs
Reading file:  /pkg/xfab/XKIT/xh018/cadence/v8_0/spectre/v8_0_1/lpmos/models/dio/dndf.scs
Reading file:  /pkg/xfab/XKIT/xh018/cadence/v8_0/spectre/v8_0_1/lpmos/models/dio/dpdwhn.scs
Reading file:  /pkg/xfab/XKIT/xh018/cadence/v8_0/spectre/v8_0_1/lpmos/models/dio/dwhn.scs
Reading file:  /pkg/xfab/XKIT/xh018/cadence/v8_0/spectre/v8_0_1/lpmos/models/dio/dpwhn.scs
Reading file:  /pkg/xfab/XKIT/xh018/cadence/v8_0/spectre/v8_0_1/lpmos/models/dio/dpndf.scs
Reading file:  /pkg/xfab/XKIT/xh018/cadence/v8_0/spectre/v8_0_1/lpmos/models/dio/dpdddnw.scs
Reading file:  /pkg/xfab/XKIT/xh018/cadence/v8_0/spectre/v8_0_1/lpmos/models/dio/ddpldnw.scs
Reading file:  /pkg/xfab/XKIT/xh018/cadence/v8_0/spectre/v8_0_1/lpmos/models/dio/dn3dpl.scs
Reading file:  /pkg/xfab/XKIT/xh018/cadence/v8_0/spectre/v8_0_1/lpmos/models/dio/dbn.scs
Reading file:  /pkg/xfab/XKIT/xh018/cadence/v8_0/spectre/v8_0_1/lpmos/models/dio/dpol.scs
Reading file:  /pkg/xfab/XKIT/xh018/cadence/v8_0/spectre/v8_0_1/lpmos/models/dio/dnpdd_scr.scs
Reading file:  /pkg/xfab/XKIT/xh018/cadence/v8_0/spectre/v8_0_1/lpmos/models/dio/dpdd_scr.scs
Reading file:  /pkg/xfab/XKIT/xh018/cadence/v8_0/spectre/v8_0_1/lpmos/models/dio/dsb.scs
Reading file:  /pkg/xfab/XKIT/xh018/cadence/v8_0/spectre/v8_0_1/lpmos/models/dio/dsba.scs
Reading file:  /pkg/xfab/XKIT/xh018/cadence/v8_0/spectre/v8_0_1/lpmos/models/dio/dsba_qp1.scs
Reading file:  /pkg/xfab/XKIT/xh018/cadence/v8_0/spectre/v8_0_1/lpmos/models/dio/dnp20.scs
Reading file:  /pkg/xfab/XKIT/xh018/cadence/v8_0/spectre/v8_0_1/lpmos/models/dio/dpp20.scs
Reading file:  /pkg/xfab/XKIT/xh018/cadence/v8_0/spectre/v8_0_1/lpmos/models/dio/dn3sci.scs
Reading file:  /pkg/xfab/XKIT/xh018/cadence/v8_0/spectre/v8_0_1/lpmos/models/dio/dscidnwmv.scs
Reading file:  /pkg/xfab/XKIT/xh018/cadence/v8_0/spectre/v8_0_1/lpmos/mos.scs
Reading file:  /pkg/xfab/XKIT/xh018/cadence/v8_0/spectre/v8_0_1/lpmos/models/mos/tm_mos.scs
Reading file:  /pkg/xfab/XKIT/xh018/cadence/v8_0/spectre/v8_0_1/lpmos/models/mos/ne.scs
Reading file:  /pkg/xfab/XKIT/xh018/cadence/v8_0/spectre/v8_0_1/lpmos/models/mos/nei.scs
Reading file:  /pkg/xfab/XKIT/xh018/cadence/v8_0/spectre/v8_0_1/lpmos/models/mos/nei_6.scs
Reading file:  /pkg/xfab/XKIT/xh018/cadence/v8_0/spectre/v8_0_1/lpmos/models/mos/nei_m_6.scs
Reading file:  /pkg/xfab/XKIT/xh018/cadence/v8_0/spectre/v8_0_1/lpmos/models/mos/pe.scs
Reading file:  /pkg/xfab/XKIT/xh018/cadence/v8_0/spectre/v8_0_1/lpmos/models/mos/pe_5.scs
Reading file:  /pkg/xfab/XKIT/xh018/cadence/v8_0/spectre/v8_0_1/lpmos/models/mos/pei.scs
Reading file:  /pkg/xfab/XKIT/xh018/cadence/v8_0/spectre/v8_0_1/lpmos/models/mos/pei_5.scs
Reading file:  /pkg/xfab/XKIT/xh018/cadence/v8_0/spectre/v8_0_1/lpmos/models/mos/pei_m_5.scs
Reading file:  /pkg/xfab/XKIT/xh018/cadence/v8_0/spectre/v8_0_1/lpmos/models/mos/nel.scs
Reading file:  /pkg/xfab/XKIT/xh018/cadence/v8_0/spectre/v8_0_1/lpmos/models/mos/neli.scs
Reading file:  /pkg/xfab/XKIT/xh018/cadence/v8_0/spectre/v8_0_1/lpmos/models/mos/neli_6.scs
Reading file:  /pkg/xfab/XKIT/xh018/cadence/v8_0/spectre/v8_0_1/lpmos/models/mos/neli_m_6.scs
Reading file:  /pkg/xfab/XKIT/xh018/cadence/v8_0/spectre/v8_0_1/lpmos/models/mos/pel.scs
Reading file:  /pkg/xfab/XKIT/xh018/cadence/v8_0/spectre/v8_0_1/lpmos/models/mos/pel_5.scs
Reading file:  /pkg/xfab/XKIT/xh018/cadence/v8_0/spectre/v8_0_1/lpmos/models/mos/peli.scs
Reading file:  /pkg/xfab/XKIT/xh018/cadence/v8_0/spectre/v8_0_1/lpmos/models/mos/peli_5.scs
Reading file:  /pkg/xfab/XKIT/xh018/cadence/v8_0/spectre/v8_0_1/lpmos/models/mos/peli_m_5.scs
Reading file:  /pkg/xfab/XKIT/xh018/cadence/v8_0/spectre/v8_0_1/lpmos/models/mos/nn3.scs
Reading file:  /pkg/xfab/XKIT/xh018/cadence/v8_0/spectre/v8_0_1/lpmos/models/mos/ne3.scs
Reading file:  /pkg/xfab/XKIT/xh018/cadence/v8_0/spectre/v8_0_1/lpmos/models/mos/ne3i.scs
Reading file:  /pkg/xfab/XKIT/xh018/cadence/v8_0/spectre/v8_0_1/lpmos/models/mos/ne3i_6.scs
Reading file:  /pkg/xfab/XKIT/xh018/cadence/v8_0/spectre/v8_0_1/lpmos/models/mos/ne3i_m_6.scs
Reading file:  /pkg/xfab/XKIT/xh018/cadence/v8_0/spectre/v8_0_1/lpmos/models/mos/pe3.scs
Reading file:  /pkg/xfab/XKIT/xh018/cadence/v8_0/spectre/v8_0_1/lpmos/models/mos/pe3_5.scs
Reading file:  /pkg/xfab/XKIT/xh018/cadence/v8_0/spectre/v8_0_1/lpmos/models/mos/pe3i.scs
Reading file:  /pkg/xfab/XKIT/xh018/cadence/v8_0/spectre/v8_0_1/lpmos/models/mos/pe3i_5.scs
Reading file:  /pkg/xfab/XKIT/xh018/cadence/v8_0/spectre/v8_0_1/lpmos/models/mos/pe3i_m_5.scs
Reading file:  /pkg/xfab/XKIT/xh018/cadence/v8_0/spectre/v8_0_1/lpmos/models/mos/pe3ln.scs
Reading file:  /pkg/xfab/XKIT/xh018/cadence/v8_0/spectre/v8_0_1/lpmos/models/mos/pe3ln_5.scs
Reading file:  /pkg/xfab/XKIT/xh018/cadence/v8_0/spectre/v8_0_1/lpmos/models/mos/pe3lni.scs
Reading file:  /pkg/xfab/XKIT/xh018/cadence/v8_0/spectre/v8_0_1/lpmos/models/mos/pe3lni_5.scs
Reading file:  /pkg/xfab/XKIT/xh018/cadence/v8_0/spectre/v8_0_1/lpmos/models/mos/pe3lni_m_5.scs
Reading file:  /pkg/xfab/XKIT/xh018/cadence/v8_0/spectre/v8_0_1/lpmos/models/mos/nd3.scs
Reading file:  /pkg/xfab/XKIT/xh018/cadence/v8_0/spectre/v8_0_1/lpmos/models/mos/nd3_mos1.scs
Reading file:  /pkg/xfab/XKIT/xh018/cadence/v8_0/spectre/v8_0_1/lpmos/models/mos/nd3_mos2.scs
Reading file:  /pkg/xfab/XKIT/xh018/cadence/v8_0/spectre/v8_0_1/lpmos/models/mos/nd3i.scs
Reading file:  /pkg/xfab/XKIT/xh018/cadence/v8_0/spectre/v8_0_1/lpmos/models/mos/nd3i_mos1.scs
Reading file:  /pkg/xfab/XKIT/xh018/cadence/v8_0/spectre/v8_0_1/lpmos/models/mos/nd3i_mos2.scs
Reading file:  /pkg/xfab/XKIT/xh018/cadence/v8_0/spectre/v8_0_1/lpmos/models/mos/nd3i_6.scs
Reading file:  /pkg/xfab/XKIT/xh018/cadence/v8_0/spectre/v8_0_1/lpmos/models/mos/nd3i_m_6.scs
Reading file:  /pkg/xfab/XKIT/xh018/cadence/v8_0/spectre/v8_0_1/lpmos/models/mos/nelna.scs
Reading file:  /pkg/xfab/XKIT/xh018/cadence/v8_0/spectre/v8_0_1/lpmos/models/mos/nelnai.scs
Reading file:  /pkg/xfab/XKIT/xh018/cadence/v8_0/spectre/v8_0_1/lpmos/models/mos/nelnai_6.scs
Reading file:  /pkg/xfab/XKIT/xh018/cadence/v8_0/spectre/v8_0_1/lpmos/models/mos/nelnai_m_6.scs
Reading file:  /pkg/xfab/XKIT/xh018/cadence/v8_0/spectre/v8_0_1/lpmos/models/mos/ne3lna.scs
Reading file:  /pkg/xfab/XKIT/xh018/cadence/v8_0/spectre/v8_0_1/lpmos/models/mos/ne3lnai.scs
Reading file:  /pkg/xfab/XKIT/xh018/cadence/v8_0/spectre/v8_0_1/lpmos/models/mos/ne3lnai_6.scs
Reading file:  /pkg/xfab/XKIT/xh018/cadence/v8_0/spectre/v8_0_1/lpmos/models/mos/ne3lnai_m_6.scs
Reading file:  /pkg/xfab/XKIT/xh018/cadence/v8_0/spectre/v8_0_1/lpmos/models/mos/pe3lna.scs
Reading file:  /pkg/xfab/XKIT/xh018/cadence/v8_0/spectre/v8_0_1/lpmos/models/mos/pe3lna_5.scs
Reading file:  /pkg/xfab/XKIT/xh018/cadence/v8_0/spectre/v8_0_1/lpmos/models/mos/pe3lnai.scs
Reading file:  /pkg/xfab/XKIT/xh018/cadence/v8_0/spectre/v8_0_1/lpmos/models/mos/pe3lnai_5.scs
Reading file:  /pkg/xfab/XKIT/xh018/cadence/v8_0/spectre/v8_0_1/lpmos/models/mos/pe3lnai_m_5.scs
Reading file:  /pkg/xfab/XKIT/xh018/cadence/v8_0/spectre/v8_0_1/lpmos/models/mos/nmma.scs
Reading file:  /pkg/xfab/XKIT/xh018/cadence/v8_0/spectre/v8_0_1/lpmos/models/mos/jf_nmma.scs
Reading file:  /pkg/xfab/XKIT/xh018/cadence/v8_0/spectre/v8_0_1/lpmos/models/mos/nmma_bjt.scs
Reading file:  /pkg/xfab/XKIT/xh018/cadence/v8_0/spectre/v8_0_1/lpmos/models/mos/pmma.scs
Reading file:  /pkg/xfab/XKIT/xh018/cadence/v8_0/spectre/v8_0_1/lpmos/models/mos/jf_pmma.scs
Reading file:  /pkg/xfab/XKIT/xh018/cadence/v8_0/spectre/v8_0_1/lpmos/models/mos/pmma_bjt.scs
Reading file:  /pkg/xfab/XKIT/xh018/cadence/v8_0/spectre/v8_0_1/lpmos/models/mos/nedi.scs
Reading file:  /pkg/xfab/XKIT/xh018/cadence/v8_0/spectre/v8_0_1/lpmos/models/mos/nedi_bjt.scs
Reading file:  /pkg/xfab/XKIT/xh018/cadence/v8_0/spectre/v8_0_1/lpmos/models/mos/nedia.scs
Reading file:  /pkg/xfab/XKIT/xh018/cadence/v8_0/spectre/v8_0_1/lpmos/models/mos/nedia_bjt.scs
Reading file:  /pkg/xfab/XKIT/xh018/cadence/v8_0/spectre/v8_0_1/lpmos/models/mos/ped2.scs
Reading file:  /pkg/xfab/XKIT/xh018/cadence/v8_0/spectre/v8_0_1/lpmos/models/mos/ped2_bjt.scs
Reading file:  /pkg/xfab/XKIT/xh018/cadence/v8_0/spectre/v8_0_1/lpmos/models/mos/ped.scs
Reading file:  /pkg/xfab/XKIT/xh018/cadence/v8_0/spectre/v8_0_1/lpmos/models/mos/ped_bjt.scs
Reading file:  /pkg/xfab/XKIT/xh018/cadence/v8_0/spectre/v8_0_1/lpmos/models/mos/nhv.scs
Reading file:  /pkg/xfab/XKIT/xh018/cadence/v8_0/spectre/v8_0_1/lpmos/models/mos/nhv_mos2.scs
Reading file:  /pkg/xfab/XKIT/xh018/cadence/v8_0/spectre/v8_0_1/lpmos/models/mos/nhv_bjt.scs
Reading file:  /pkg/xfab/XKIT/xh018/cadence/v8_0/spectre/v8_0_1/lpmos/models/mos/nhhv.scs
Reading file:  /pkg/xfab/XKIT/xh018/cadence/v8_0/spectre/v8_0_1/lpmos/models/mos/nhhv_mos2.scs
Reading file:  /pkg/xfab/XKIT/xh018/cadence/v8_0/spectre/v8_0_1/lpmos/models/mos/nhhv_bjt.scs
Reading file:  /pkg/xfab/XKIT/xh018/cadence/v8_0/spectre/v8_0_1/lpmos/models/mos/nmmc.scs
Reading file:  /pkg/xfab/XKIT/xh018/cadence/v8_0/spectre/v8_0_1/lpmos/models/mos/nmmc_mos2.scs
Reading file:  /pkg/xfab/XKIT/xh018/cadence/v8_0/spectre/v8_0_1/lpmos/models/mos/nmmc_bjt.scs
Reading file:  /pkg/xfab/XKIT/xh018/cadence/v8_0/spectre/v8_0_1/lpmos/models/mos/nmmd.scs
Reading file:  /pkg/xfab/XKIT/xh018/cadence/v8_0/spectre/v8_0_1/lpmos/models/mos/nmmd_mos2.scs
Reading file:  /pkg/xfab/XKIT/xh018/cadence/v8_0/spectre/v8_0_1/lpmos/models/mos/nmmd_bjt.scs
Reading file:  /pkg/xfab/XKIT/xh018/cadence/v8_0/spectre/v8_0_1/lpmos/models/mos/nmc.scs
Reading file:  /pkg/xfab/XKIT/xh018/cadence/v8_0/spectre/v8_0_1/lpmos/models/mos/nmc_mos2.scs
Reading file:  /pkg/xfab/XKIT/xh018/cadence/v8_0/spectre/v8_0_1/lpmos/models/mos/nmc_bjt.scs
Reading file:  /pkg/xfab/XKIT/xh018/cadence/v8_0/spectre/v8_0_1/lpmos/models/mos/nma.scs
Reading file:  /pkg/xfab/XKIT/xh018/cadence/v8_0/spectre/v8_0_1/lpmos/models/mos/nma_bjt.scs
Reading file:  /pkg/xfab/XKIT/xh018/cadence/v8_0/spectre/v8_0_1/lpmos/models/mos/phv.scs
Reading file:  /pkg/xfab/XKIT/xh018/cadence/v8_0/spectre/v8_0_1/lpmos/models/mos/phv_mos2.scs
Reading file:  /pkg/xfab/XKIT/xh018/cadence/v8_0/spectre/v8_0_1/lpmos/models/mos/phv_bjt.scs
Reading file:  /pkg/xfab/XKIT/xh018/cadence/v8_0/spectre/v8_0_1/lpmos/models/mos/phhv.scs
Reading file:  /pkg/xfab/XKIT/xh018/cadence/v8_0/spectre/v8_0_1/lpmos/models/mos/phhv_mos2.scs
Reading file:  /pkg/xfab/XKIT/xh018/cadence/v8_0/spectre/v8_0_1/lpmos/models/mos/phhv_bjt.scs
Reading file:  /pkg/xfab/XKIT/xh018/cadence/v8_0/spectre/v8_0_1/lpmos/models/mos/pmc.scs
Reading file:  /pkg/xfab/XKIT/xh018/cadence/v8_0/spectre/v8_0_1/lpmos/models/mos/pmc_mos2.scs
Reading file:  /pkg/xfab/XKIT/xh018/cadence/v8_0/spectre/v8_0_1/lpmos/models/mos/pmc_bjt.scs
Reading file:  /pkg/xfab/XKIT/xh018/cadence/v8_0/spectre/v8_0_1/lpmos/models/mos/pmmc.scs
Reading file:  /pkg/xfab/XKIT/xh018/cadence/v8_0/spectre/v8_0_1/lpmos/models/mos/pmmc_mos2.scs
Reading file:  /pkg/xfab/XKIT/xh018/cadence/v8_0/spectre/v8_0_1/lpmos/models/mos/pmmc_bjt.scs
Reading file:  /pkg/xfab/XKIT/xh018/cadence/v8_0/spectre/v8_0_1/lpmos/models/mos/pma.scs
Reading file:  /pkg/xfab/XKIT/xh018/cadence/v8_0/spectre/v8_0_1/lpmos/models/mos/pma_bjt.scs
Reading file:  /pkg/xfab/XKIT/xh018/cadence/v8_0/spectre/v8_0_1/lpmos/models/mos/pmb.scs
Reading file:  /pkg/xfab/XKIT/xh018/cadence/v8_0/spectre/v8_0_1/lpmos/models/mos/nesvt.scs
Reading file:  /pkg/xfab/XKIT/xh018/cadence/v8_0/spectre/v8_0_1/lpmos/models/mos/nesvti.scs
Reading file:  /pkg/xfab/XKIT/xh018/cadence/v8_0/spectre/v8_0_1/lpmos/models/mos/nesvti_6.scs
Reading file:  /pkg/xfab/XKIT/xh018/cadence/v8_0/spectre/v8_0_1/lpmos/models/mos/nesvti_m_6.scs
Reading file:  /pkg/xfab/XKIT/xh018/cadence/v8_0/spectre/v8_0_1/lpmos/models/mos/pesvt.scs
Reading file:  /pkg/xfab/XKIT/xh018/cadence/v8_0/spectre/v8_0_1/lpmos/models/mos/pesvt_5.scs
Reading file:  /pkg/xfab/XKIT/xh018/cadence/v8_0/spectre/v8_0_1/lpmos/models/mos/pesvti.scs
Reading file:  /pkg/xfab/XKIT/xh018/cadence/v8_0/spectre/v8_0_1/lpmos/models/mos/pesvti_5.scs
Reading file:  /pkg/xfab/XKIT/xh018/cadence/v8_0/spectre/v8_0_1/lpmos/models/mos/pesvti_m_5.scs
Reading file:  /pkg/xfab/XKIT/xh018/cadence/v8_0/spectre/v8_0_1/lpmos/models/mos/nhvd.scs
Reading file:  /pkg/xfab/XKIT/xh018/cadence/v8_0/spectre/v8_0_1/lpmos/models/mos/nhvd_bjt.scs
Reading file:  /pkg/xfab/XKIT/xh018/cadence/v8_0/spectre/v8_0_1/lpmos/models/mos/nhhvd.scs
Reading file:  /pkg/xfab/XKIT/xh018/cadence/v8_0/spectre/v8_0_1/lpmos/models/mos/nhhvd_bjt.scs
Reading file:  /pkg/xfab/XKIT/xh018/cadence/v8_0/spectre/v8_0_1/lpmos/photo.scs
Reading file:  /pkg/xfab/XKIT/xh018/cadence/v8_0/spectre/v8_0_1/lpmos/models/photo/tm_pho.scs
Reading file:  /pkg/xfab/XKIT/xh018/cadence/v8_0/spectre/v8_0_1/lpmos/models/photo/dphoa.scs
Reading file:  /pkg/xfab/XKIT/xh018/cadence/v8_0/spectre/v8_0_1/lpmos/models/photo/dpho.va
Reading link:  /pkg/cadence/installs/SPECTRE181/tools.lnx86/spectre/etc/ahdl/constants.h
Reading file:  /pkg/cadence/installs/SPECTRE181/tools.lnx86/spectre/etc/ahdl/constants.vams
Reading link:  /pkg/cadence/installs/SPECTRE181/tools.lnx86/spectre/etc/ahdl/discipline.h
Reading file:  /pkg/cadence/installs/SPECTRE181/tools.lnx86/spectre/etc/ahdl/disciplines.vams
Reading file:  /pkg/xfab/XKIT/xh018/cadence/v8_0/spectre/v8_0_1/lpmos/models/photo/dphob.scs
Reading file:  /pkg/xfab/XKIT/xh018/cadence/v8_0/spectre/v8_0_1/lpmos/models/photo/dphoc.scs
Reading file:  /pkg/xfab/XKIT/xh018/cadence/v8_0/spectre/v8_0_1/lpmos/models/photo/iphoto_uv.va
Reading file:  /pkg/xfab/XKIT/xh018/cadence/v8_0/spectre/v8_0_1/lpmos/models/photo/dphoc_cat.scs
Reading file:  /pkg/xfab/XKIT/xh018/cadence/v8_0/spectre/v8_0_1/lpmos/models/photo/dphoc0.scs
Reading file:  /pkg/xfab/XKIT/xh018/cadence/v8_0/spectre/v8_0_1/lpmos/models/photo/dphoc0_cat.scs
Reading file:  /pkg/xfab/XKIT/xh018/cadence/v8_0/spectre/v8_0_1/lpmos/models/photo/dphocfp.scs
Reading file:  /pkg/xfab/XKIT/xh018/cadence/v8_0/spectre/v8_0_1/lpmos/models/photo/dphocfp_cat.scs
Reading file:  /pkg/xfab/XKIT/xh018/cadence/v8_0/spectre/v8_0_1/lpmos/models/photo/dphod.scs
Reading file:  /pkg/xfab/XKIT/xh018/cadence/v8_0/spectre/v8_0_1/lpmos/models/photo/dphod_an1.scs
Reading file:  /pkg/xfab/XKIT/xh018/cadence/v8_0/spectre/v8_0_1/lpmos/models/photo/dphod_an2.scs
Reading file:  /pkg/xfab/XKIT/xh018/cadence/v8_0/spectre/v8_0_1/lpmos/models/photo/dphod0.scs
Reading file:  /pkg/xfab/XKIT/xh018/cadence/v8_0/spectre/v8_0_1/lpmos/models/photo/dphod0_an1.scs
Reading file:  /pkg/xfab/XKIT/xh018/cadence/v8_0/spectre/v8_0_1/lpmos/models/photo/dphod0_an2.scs
Reading file:  /pkg/xfab/XKIT/xh018/cadence/v8_0/spectre/v8_0_1/lpmos/models/photo/dphodfp.scs
Reading file:  /pkg/xfab/XKIT/xh018/cadence/v8_0/spectre/v8_0_1/lpmos/models/photo/dphodfp_an1.scs
Reading file:  /pkg/xfab/XKIT/xh018/cadence/v8_0/spectre/v8_0_1/lpmos/models/photo/dphodfp_an2.scs
Reading file:  /pkg/xfab/XKIT/xh018/cadence/v8_0/spectre/v8_0_1/lpmos/models/photo/dspada.scs
Reading file:  /pkg/xfab/XKIT/xh018/cadence/v8_0/spectre/v8_0_1/lpmos/models/photo/ispad.va
Reading file:  /pkg/xfab/XKIT/xh018/cadence/v8_0/spectre/v8_0_1/lpmos/models/photo/dspada_cat.scs
Reading file:  /pkg/xfab/XKIT/xh018/cadence/v8_0/spectre/v8_0_1/lpmos/models/photo/dspada0.scs
Reading file:  /pkg/xfab/XKIT/xh018/cadence/v8_0/spectre/v8_0_1/lpmos/models/photo/dapda.scs
Reading file:  /pkg/xfab/XKIT/xh018/cadence/v8_0/spectre/v8_0_1/lpmos/models/photo/iphoto_apd.va
Reading file:  /pkg/xfab/XKIT/xh018/cadence/v8_0/spectre/v8_0_1/lpmos/models/photo/dapda_cat.scs
Reading file:  /pkg/xfab/XKIT/xh018/cadence/v8_0/spectre/v8_0_1/lpmos/models/photo/dapda0.scs
Reading file:  /pkg/xfab/XKIT/xh018/cadence/v8_0/spectre/v8_0_1/lpmos/res.scs
Reading file:  /pkg/xfab/XKIT/xh018/cadence/v8_0/spectre/v8_0_1/lpmos/models/res/tm_res.scs
Reading file:  /pkg/xfab/XKIT/xh018/cadence/v8_0/spectre/v8_0_1/lpmos/models/res/rdn.scs
Reading file:  /pkg/xfab/XKIT/xh018/cadence/v8_0/spectre/v8_0_1/lpmos/models/res/rdn_esd.scs
Reading file:  /pkg/xfab/XKIT/xh018/cadence/v8_0/spectre/v8_0_1/lpmos/models/res/rdp.scs
Reading file:  /pkg/xfab/XKIT/xh018/cadence/v8_0/spectre/v8_0_1/lpmos/models/res/rdp_io.scs
Reading file:  /pkg/xfab/XKIT/xh018/cadence/v8_0/spectre/v8_0_1/lpmos/models/res/rdp_esd.scs
Reading file:  /pkg/xfab/XKIT/xh018/cadence/v8_0/spectre/v8_0_1/lpmos/models/res/rnw.scs
Reading file:  /pkg/xfab/XKIT/xh018/cadence/v8_0/spectre/v8_0_1/lpmos/models/res/rnw_scr.scs
Reading file:  /pkg/xfab/XKIT/xh018/cadence/v8_0/spectre/v8_0_1/lpmos/models/res/rdn3.scs
Reading file:  /pkg/xfab/XKIT/xh018/cadence/v8_0/spectre/v8_0_1/lpmos/models/res/rdp3.scs
Reading file:  /pkg/xfab/XKIT/xh018/cadence/v8_0/spectre/v8_0_1/lpmos/models/res/rnw3.scs
Reading file:  /pkg/xfab/XKIT/xh018/cadence/v8_0/spectre/v8_0_1/lpmos/models/res/rnw3_scr.scs
Reading file:  /pkg/xfab/XKIT/xh018/cadence/v8_0/spectre/v8_0_1/lpmos/models/res/rdnwmv.scs
Reading file:  /pkg/xfab/XKIT/xh018/cadence/v8_0/spectre/v8_0_1/lpmos/models/res/rnp1.scs
Reading file:  /pkg/xfab/XKIT/xh018/cadence/v8_0/spectre/v8_0_1/lpmos/models/res/rnp1_3.scs
Reading file:  /pkg/xfab/XKIT/xh018/cadence/v8_0/spectre/v8_0_1/lpmos/models/res/rpp1.scs
Reading file:  /pkg/xfab/XKIT/xh018/cadence/v8_0/spectre/v8_0_1/lpmos/models/res/rpp1_3.scs
Reading file:  /pkg/xfab/XKIT/xh018/cadence/v8_0/spectre/v8_0_1/lpmos/models/res/rpp1s.scs
Reading file:  /pkg/xfab/XKIT/xh018/cadence/v8_0/spectre/v8_0_1/lpmos/models/res/rpp1s_3.scs
Reading file:  /pkg/xfab/XKIT/xh018/cadence/v8_0/spectre/v8_0_1/lpmos/models/res/rnp1h.scs
Reading file:  /pkg/xfab/XKIT/xh018/cadence/v8_0/spectre/v8_0_1/lpmos/models/res/rnp1h_3.scs
Reading file:  /pkg/xfab/XKIT/xh018/cadence/v8_0/spectre/v8_0_1/lpmos/models/res/rpp1k1.scs
Reading file:  /pkg/xfab/XKIT/xh018/cadence/v8_0/spectre/v8_0_1/lpmos/models/res/rpp1k1_3.scs
Reading file:  /pkg/xfab/XKIT/xh018/cadence/v8_0/spectre/v8_0_1/lpmos/models/res/rctdn.scs
Reading file:  /pkg/xfab/XKIT/xh018/cadence/v8_0/spectre/v8_0_1/lpmos/models/res/rctdp.scs
Reading file:  /pkg/xfab/XKIT/xh018/cadence/v8_0/spectre/v8_0_1/lpmos/models/res/rctp1.scs
Reading file:  /pkg/xfab/XKIT/xh018/cadence/v8_0/spectre/v8_0_1/lpmos/models/res/rsildn.scs
Reading file:  /pkg/xfab/XKIT/xh018/cadence/v8_0/spectre/v8_0_1/lpmos/models/res/rsildp.scs
Reading file:  /pkg/xfab/XKIT/xh018/cadence/v8_0/spectre/v8_0_1/lpmos/models/res/rsilnp1.scs
Reading file:  /pkg/xfab/XKIT/xh018/cadence/v8_0/spectre/v8_0_1/lpmos/models/res/rsilpp1.scs
Reading file:  /pkg/xfab/XKIT/xh018/cadence/v8_0/spectre/v8_0_1/lpmos/models/res/rsbdn.scs
Reading file:  /pkg/xfab/XKIT/xh018/cadence/v8_0/spectre/v8_0_1/lpmos/models/res/rsbdp.scs
Reading file:  /pkg/xfab/XKIT/xh018/cadence/v8_0/spectre/v8_0_1/lpmos/models/res/rsbdn3.scs
Reading file:  /pkg/xfab/XKIT/xh018/cadence/v8_0/spectre/v8_0_1/lpmos/models/res/rsbdp3.scs
Reading file:  /pkg/xfab/XKIT/xh018/cadence/v8_0/spectre/v8_0_1/lpmos/models/res/rsbnp1.scs
Reading file:  /pkg/xfab/XKIT/xh018/cadence/v8_0/spectre/v8_0_1/lpmos/models/res/rsbpp1.scs
Reading file:  /pkg/xfab/XKIT/xh018/cadence/v8_0/spectre/v8_0_1/lpmos/models/res/rsbpp1k1.scs
Reading file:  /pkg/xfab/XKIT/xh018/cadence/v8_0/spectre/v8_0_1/lpmos/models/res/rm1.scs
Reading file:  /pkg/xfab/XKIT/xh018/cadence/v8_0/spectre/v8_0_1/lpmos/models/res/rm2.scs
Reading file:  /pkg/xfab/XKIT/xh018/cadence/v8_0/spectre/v8_0_1/lpmos/models/res/rm3.scs
Reading file:  /pkg/xfab/XKIT/xh018/cadence/v8_0/spectre/v8_0_1/lpmos/models/res/rm4.scs
Reading file:  /pkg/xfab/XKIT/xh018/cadence/v8_0/spectre/v8_0_1/lpmos/models/res/rm5.scs
Reading file:  /pkg/xfab/XKIT/xh018/cadence/v8_0/spectre/v8_0_1/lpmos/models/res/rmtp.scs
Reading file:  /pkg/xfab/XKIT/xh018/cadence/v8_0/spectre/v8_0_1/lpmos/models/res/rmtpl.scs
Reading file:  /pkg/xfab/XKIT/xh018/cadence/v8_0/spectre/v8_0_1/lpmos/models/res/pfuse.scs
Reading file:  /pkg/xfab/XKIT/xh018/cadence/v8_0/spectre/v8_0_1/lpmos/models/res/s_res.scs
Time for NDB Parsing: CPU = 464.902 ms, elapsed = 547.959 ms.
Time accumulated: CPU = 536.493 ms, elapsed = 547.973 ms.
Peak resident memory used = 70.4 Mbytes.


Warning from spectre in `CurrentMirror_x10_LV', during circuit read-in.
    WARNING (SFE-2453): The global node `0' and sub circuit terminal `0' will be treated as the sub circuit terminal.

Time for Elaboration: CPU = 38.059 ms, elapsed = 38.0619 ms.
Time accumulated: CPU = 574.708 ms, elapsed = 586.189 ms.
Peak resident memory used = 80.6 Mbytes.


Warning from spectre during hierarchy flattening.
    WARNING (SPECTRE-17101): The value 'psf' specified using the 'checklimitdest' option will no longer be supported in future releases.


Time for EDB Visiting: CPU = 3.359 ms, elapsed = 3.35908 ms.
Time accumulated: CPU = 578.213 ms, elapsed = 589.693 ms.
Peak resident memory used = 81.7 Mbytes.


Notice from spectre during initial setup.
    M11.ped_bjtmod: Hisim_hv version 2.10 used. Version: 2, Subversion: 1 and Revision: 0. Type is P.
    M15.nedia_bjtmod: Hisim_hv version 2.10 used. Version: 2, Subversion: 1 and Revision: 0. Type is N.
    M7.nedia_bjtmod: Hisim_hv version 2.10 used. Version: 2, Subversion: 1 and Revision: 0. Type is N.
    M0.nedia_bjtmod: Hisim_hv version 2.10 used. Version: 2, Subversion: 1 and Revision: 0. Type is N.
    M8.nedia_bjtmod: Hisim_hv version 2.10 used. Version: 2, Subversion: 1 and Revision: 0. Type is N.
        Further occurrences of this notice will be suppressed.
Notice from spectre during topology check.
    Only one connection to node `vdde!'.


Global user options:
         psfversion = 1.1.0
            vabstol = 1e-06
            iabstol = 1e-12
               temp = 27
           homotopy = 7
              limit = delta
         compatible = spice2
               gmin = 1e-12
             rforce = 1
           maxnotes = 5
           maxwarns = 5
             digits = 5
               cols = 80
             pivrel = 0.001
           sensfile = ../psf/sens.output
     checklimitdest = psf
               save = allpub
             reltol = 0.0001
               tnom = 27
             scalem = 1
              scale = 1

Scoped user options:

Circuit inventory:
              nodes 47
             iprobe 1     
                bjt 17    
            bsim3v3 12    
          capacitor 20    
           hisim_hv 17    
            isource 1     
           resistor 24    
            vsource 4     

Analysis and control statement inventory:
                 dc 2     
               info 7     
              sweep 1     

Output statements:
             .probe 0     
           .measure 0     
               save 1     


Notice from spectre.
    2 notices suppressed.

Time for parsing: CPU = 5.166 ms, elapsed = 9.37295 ms.
Time accumulated: CPU = 583.501 ms, elapsed = 599.188 ms.
Peak resident memory used = 83.8 Mbytes.

~~~~~~~~~~~~~~~~~~~~~~
Pre-Simulation Summary
~~~~~~~~~~~~~~~~~~~~~~
~~~~~~~~~~~~~~~~~~~~~~

****************************************************
Sweep Analysis `sweep1': iteration_sweep1 = (1 -> 8)
****************************************************

Opening the PSF file ../psf/sweep1_dcOp.sweep ...

Opening the PSF file ../psf/sweep1_dcOpInfo.sweep ...

Opening the PSF file ../psf/sweep1_dc.sweep ...

Opening the PSF file ../psf/sweep1_modelParameter.sweep ...

Opening the PSF file ../psf/sweep1_element.sweep ...

Opening the PSF file ../psf/sweep1_outputParameter.sweep ...

Opening the PSF file ../psf/sweep1_designParamVals.sweep ...

Opening the PSF file ../psf/sweep1_primitives.sweep ...

Opening the PSF file ../psf/sweep1_subckts.sweep ...

++++++++++++++++++++++++++++++++++
sweep1: iteration_sweep1 = 1 (0 %)
++++++++++++++++++++++++++++++++++
Time for sweep1 itNum=0: CPU = 7.918 ms, elapsed = 7.91907 ms.
Time accumulated: CPU = 591.546 ms, elapsed = 607.235 ms.
Peak resident memory used = 84.5 Mbytes.


*****************************
DC Analysis `sweep1-000_dcOp'
*****************************

Opening the PSF file ../psf/sweep1-000_dcOp.dc ...
Important parameter values:
    reltol = 100e-06
    abstol(V) = 1 uV
    abstol(I) = 1 pA
    temp = 27 C
    tnom = 27 C
    tempeffects = all
    gmindc = 1 pS
Trying `homotopy = gmin'.

Notice from spectre at iteration_sweep1 = 1 during DC analysis `sweep1-000_dcOp', during Sweep analysis `sweep1'.
    GminDC = 1 pS is large enough to noticeably affect the DC solution.
        dV(I17.M4.m1:int_d) = 21.9669 mV
        Use the `gmin_check' option to eliminate or expand this report.


Maximum value achieved for any signal of each quantity: 
V: V(vddh) = 40 V
I: I(M0:1) = 1.073 mA
Convergence achieved in 329 iterations.
DC simulation time: CPU = 64.744 ms, elapsed = 67.131 ms.
Total time required for dc analysis `sweep1-000_dcOp': CPU = 65.206 ms, elapsed = 67.591 ms.
Time accumulated: CPU = 668.274 ms, elapsed = 714.696 ms.
Peak resident memory used = 86.1 Mbytes.

sweep1-000_dcOpInfo: writing operating point information to rawfile.

Opening the PSF file ../psf/sweep1-000_dcOpInfo.info ...

*********************************************
DC Analysis `sweep1-000_dc': vout = (0 -> 40)
*********************************************

Opening the PSF file ../psf/sweep1-000_dc.dc ...
Important parameter values:
    reltol = 100e-06
    abstol(V) = 1 uV
    abstol(I) = 1 pA
    temp = 27 C
    tnom = 27 C
    tempeffects = all
    gmindc = 1 pS
Trying `homotopy = gmin'.

Notice from spectre at vout = 0 during DC analysis `sweep1-000_dc', during Sweep analysis `sweep1'.
    GminDC = 1 pS is large enough to noticeably affect the DC solution.
        dV(I17.M4.m1:int_d) = 21.9669 mV
        Use the `gmin_check' option to eliminate or expand this report.
Notice from spectre at vout = 800e-03 during DC analysis `sweep1-000_dc', during Sweep analysis `sweep1'.
    GminDC = 1 pS is large enough to noticeably affect the DC solution.
        dV(I17.M4.m1:int_d) = 21.9669 mV
        Use the `gmin_check' option to eliminate or expand this report.
Notice from spectre at vout = 1.6 during DC analysis `sweep1-000_dc', during Sweep analysis `sweep1'.
    GminDC = 1 pS is large enough to noticeably affect the DC solution.
        dV(I17.M4.m1:int_d) = 21.9669 mV
        Use the `gmin_check' option to eliminate or expand this report.

    sweep1-000_dc: vout = 1.6            (4 %), step = 800e-03         (2 %)

Notice from spectre at vout = 2.4 during DC analysis `sweep1-000_dc', during Sweep analysis `sweep1'.
    GminDC = 1 pS is large enough to noticeably affect the DC solution.
        dV(I17.M4.m1:int_d) = 21.9669 mV
        Use the `gmin_check' option to eliminate or expand this report.

    sweep1-000_dc: vout = 2.4            (6 %), step = 800e-03         (2 %)

Notice from spectre at vout = 3.2 during DC analysis `sweep1-000_dc', during Sweep analysis `sweep1'.
    GminDC = 1 pS is large enough to noticeably affect the DC solution.
        Further occurrences of this notice will be suppressed.
        dV(I17.M4.m1:int_d) = 21.9669 mV
        Further occurrences of this notice will be suppressed.
        Use the `gmin_check' option to eliminate or expand this report.
        Further occurrences of this notice will be suppressed.

    sweep1-000_dc: vout = 3.2            (8 %), step = 800e-03         (2 %)
    sweep1-000_dc: vout = 4             (10 %), step = 800e-03         (2 %)
    sweep1-000_dc: vout = 4.8           (12 %), step = 800e-03         (2 %)
    sweep1-000_dc: vout = 5.6           (14 %), step = 800e-03         (2 %)
    sweep1-000_dc: vout = 6.4           (16 %), step = 800e-03         (2 %)
    sweep1-000_dc: vout = 7.2           (18 %), step = 800e-03         (2 %)
    sweep1-000_dc: vout = 8             (20 %), step = 800e-03         (2 %)
    sweep1-000_dc: vout = 8.8           (22 %), step = 800e-03         (2 %)
    sweep1-000_dc: vout = 9.6           (24 %), step = 800e-03         (2 %)
    sweep1-000_dc: vout = 10.4          (26 %), step = 800e-03         (2 %)
    sweep1-000_dc: vout = 11.2          (28 %), step = 800e-03         (2 %)
    sweep1-000_dc: vout = 12            (30 %), step = 800e-03         (2 %)
    sweep1-000_dc: vout = 12.8          (32 %), step = 800e-03         (2 %)
    sweep1-000_dc: vout = 13.6          (34 %), step = 800e-03         (2 %)
    sweep1-000_dc: vout = 14.4          (36 %), step = 800e-03         (2 %)
    sweep1-000_dc: vout = 15.2          (38 %), step = 800e-03         (2 %)
    sweep1-000_dc: vout = 16            (40 %), step = 800e-03         (2 %)
    sweep1-000_dc: vout = 16.8          (42 %), step = 800e-03         (2 %)
    sweep1-000_dc: vout = 17.6          (44 %), step = 800e-03         (2 %)
    sweep1-000_dc: vout = 18.4          (46 %), step = 800e-03         (2 %)
    sweep1-000_dc: vout = 19.2          (48 %), step = 800e-03         (2 %)
    sweep1-000_dc: vout = 20            (50 %), step = 800e-03         (2 %)
    sweep1-000_dc: vout = 20.8          (52 %), step = 800e-03         (2 %)
    sweep1-000_dc: vout = 21.6          (54 %), step = 800e-03         (2 %)
    sweep1-000_dc: vout = 22.4          (56 %), step = 800e-03         (2 %)
    sweep1-000_dc: vout = 23.2          (58 %), step = 800e-03         (2 %)
    sweep1-000_dc: vout = 24            (60 %), step = 800e-03         (2 %)
    sweep1-000_dc: vout = 24.8          (62 %), step = 800e-03         (2 %)
    sweep1-000_dc: vout = 25.6          (64 %), step = 800e-03         (2 %)
    sweep1-000_dc: vout = 26.4          (66 %), step = 800e-03         (2 %)
    sweep1-000_dc: vout = 27.2          (68 %), step = 800e-03         (2 %)
    sweep1-000_dc: vout = 28            (70 %), step = 800e-03         (2 %)
    sweep1-000_dc: vout = 28.8          (72 %), step = 800e-03         (2 %)
    sweep1-000_dc: vout = 29.6          (74 %), step = 800e-03         (2 %)
    sweep1-000_dc: vout = 30.4          (76 %), step = 800e-03         (2 %)
    sweep1-000_dc: vout = 31.2          (78 %), step = 800e-03         (2 %)
    sweep1-000_dc: vout = 32            (80 %), step = 800e-03         (2 %)
    sweep1-000_dc: vout = 32.8          (82 %), step = 800e-03         (2 %)
    sweep1-000_dc: vout = 33.6          (84 %), step = 800e-03         (2 %)
    sweep1-000_dc: vout = 34.4          (86 %), step = 800e-03         (2 %)
    sweep1-000_dc: vout = 35.2          (88 %), step = 800e-03         (2 %)
    sweep1-000_dc: vout = 36            (90 %), step = 800e-03         (2 %)
    sweep1-000_dc: vout = 36.8          (92 %), step = 800e-03         (2 %)
    sweep1-000_dc: vout = 37.6          (94 %), step = 800e-03         (2 %)
    sweep1-000_dc: vout = 38.4          (96 %), step = 800e-03         (2 %)
    sweep1-000_dc: vout = 39.2          (98 %), step = 800e-03         (2 %)
    sweep1-000_dc: vout = 40           (100 %), step = 800e-03         (2 %)

Maximum value achieved for any signal of each quantity: 
V: V(net84) = 40 V
I: I(M0:1) = 1.083 mA
sweep1-000_dc: writing operating point information to rawfile.

Opening the PSF file ../psf/sweep1-000_dc.info ...
DC simulation time: CPU = 357.196 ms, elapsed = 362.023 ms.

Notice from spectre at vout = 40 during DC analysis `sweep1-000_dc', during Sweep analysis `sweep1'.
    The value of parameter 'vout' has been reset to the original value 20.

Total time required for dc analysis `sweep1-000_dc': CPU = 357.278 ms, elapsed = 362.103 ms.
Time accumulated: CPU = 1.0384 s, elapsed = 1.09202 s.
Peak resident memory used = 87 Mbytes.


Notice from spectre during Sweep analysis `sweep1'.
    46 notices suppressed.

sweep1-000_modelParameter: writing model parameter values to rawfile.

Opening the PSF file ../psf/sweep1-000_modelParameter.info ...
sweep1-000_element: writing instance parameter values to rawfile.

Opening the PSF file ../psf/sweep1-000_element.info ...
sweep1-000_outputParameter: writing output parameter values to rawfile.

Opening the PSF file ../psf/sweep1-000_outputParameter.info ...
sweep1-000_designParamVals: writing netlist parameters to rawfile.

Opening the PSFASCII file ../psf/sweep1-000_designParamVals.info ...
sweep1-000_primitives: writing primitives to rawfile.

Opening the PSFASCII file ../psf/sweep1-000_primitives.info.primitives ...
sweep1-000_subckts: writing subcircuits to rawfile.

Opening the PSFASCII file ../psf/sweep1-000_subckts.info.subckts ...

++++++++++++++++++++++++++++++++++++++++
sweep1: iteration_sweep1 = 2 (16.6667 %)
++++++++++++++++++++++++++++++++++++++++
Time for sweep1 itNum=1: CPU = 51.864 ms, elapsed = 73.7131 ms.
Time accumulated: CPU = 1.09043 s, elapsed = 1.1659 s.
Peak resident memory used = 87.7 Mbytes.


*****************************
DC Analysis `sweep1-001_dcOp'
*****************************

Opening the PSF file ../psf/sweep1-001_dcOp.dc ...
Important parameter values:
    reltol = 100e-06
    abstol(V) = 1 uV
    abstol(I) = 1 pA
    temp = 27 C
    tnom = 27 C
    tempeffects = all
    gmindc = 1 pS
Trying `homotopy = gmin'.

Notice from spectre during DC analysis `sweep1-001_dcOp', during Sweep analysis `sweep1'.
    GminDC = 1 pS is large enough to noticeably affect the DC solution.
        dV(I17.M4.m1:int_d) = 21.9669 mV
        Use the `gmin_check' option to eliminate or expand this report.
    Bad pivoting is found during DC analysis. Option dc_pivot_check=yes is recommended for possible improvement of convergence.


Maximum value achieved for any signal of each quantity: 
V: V(vddh) = 40 V
I: I(M0:1) = 5.159 mA
Convergence achieved in 320 iterations.
DC simulation time: CPU = 68.134 ms, elapsed = 70.5192 ms.
Total time required for dc analysis `sweep1-001_dcOp': CPU = 68.647 ms, elapsed = 71.032 ms.
Time accumulated: CPU = 1.15979 s, elapsed = 1.23764 s.
Peak resident memory used = 87.8 Mbytes.

sweep1-001_dcOpInfo: writing operating point information to rawfile.

Opening the PSF file ../psf/sweep1-001_dcOpInfo.info ...

*********************************************
DC Analysis `sweep1-001_dc': vout = (0 -> 40)
*********************************************

Opening the PSF file ../psf/sweep1-001_dc.dc ...
Important parameter values:
    reltol = 100e-06
    abstol(V) = 1 uV
    abstol(I) = 1 pA
    temp = 27 C
    tnom = 27 C
    tempeffects = all
    gmindc = 1 pS
Trying `homotopy = gmin'.

Notice from spectre at vout = 0 during DC analysis `sweep1-001_dc', during Sweep analysis `sweep1'.
    GminDC = 1 pS is large enough to noticeably affect the DC solution.
        dV(I17.M4.m1:int_d) = 21.9669 mV
        Use the `gmin_check' option to eliminate or expand this report.
    Bad pivoting is found during DC analysis. Option dc_pivot_check=yes is recommended for possible improvement of convergence.
Notice from spectre at vout = 800e-03 during DC analysis `sweep1-001_dc', during Sweep analysis `sweep1'.
    GminDC = 1 pS is large enough to noticeably affect the DC solution.
        dV(I17.M4.m1:int_d) = 21.9669 mV
        Use the `gmin_check' option to eliminate or expand this report.
    Bad pivoting is found during DC analysis. Option dc_pivot_check=yes is recommended for possible improvement of convergence.
Notice from spectre at vout = 1.6 during DC analysis `sweep1-001_dc', during Sweep analysis `sweep1'.
    GminDC = 1 pS is large enough to noticeably affect the DC solution.
        dV(I17.M4.m1:int_d) = 21.9669 mV
        Use the `gmin_check' option to eliminate or expand this report.
    Bad pivoting is found during DC analysis. Option dc_pivot_check=yes is recommended for possible improvement of convergence.

    sweep1-001_dc: vout = 1.6            (4 %), step = 800e-03         (2 %)

Notice from spectre at vout = 2.4 during DC analysis `sweep1-001_dc', during Sweep analysis `sweep1'.
    GminDC = 1 pS is large enough to noticeably affect the DC solution.
        dV(I17.M4.m1:int_d) = 21.9669 mV
        Use the `gmin_check' option to eliminate or expand this report.
    Bad pivoting is found during DC analysis. Option dc_pivot_check=yes is recommended for possible improvement of convergence.

    sweep1-001_dc: vout = 2.4            (6 %), step = 800e-03         (2 %)

Notice from spectre at vout = 3.2 during DC analysis `sweep1-001_dc', during Sweep analysis `sweep1'.
    GminDC = 1 pS is large enough to noticeably affect the DC solution.
        Further occurrences of this notice will be suppressed.
        dV(I17.M4.m1:int_d) = 21.9669 mV
        Further occurrences of this notice will be suppressed.
        Use the `gmin_check' option to eliminate or expand this report.
        Further occurrences of this notice will be suppressed.
    Bad pivoting is found during DC analysis. Option dc_pivot_check=yes is recommended for possible improvement of convergence.
        Further occurrences of this notice will be suppressed.

    sweep1-001_dc: vout = 3.2            (8 %), step = 800e-03         (2 %)
    sweep1-001_dc: vout = 4             (10 %), step = 800e-03         (2 %)
    sweep1-001_dc: vout = 4.8           (12 %), step = 800e-03         (2 %)
    sweep1-001_dc: vout = 5.6           (14 %), step = 800e-03         (2 %)
    sweep1-001_dc: vout = 6.4           (16 %), step = 800e-03         (2 %)
    sweep1-001_dc: vout = 7.2           (18 %), step = 800e-03         (2 %)
    sweep1-001_dc: vout = 8             (20 %), step = 800e-03         (2 %)
    sweep1-001_dc: vout = 8.8           (22 %), step = 800e-03         (2 %)
    sweep1-001_dc: vout = 9.6           (24 %), step = 800e-03         (2 %)
    sweep1-001_dc: vout = 10.4          (26 %), step = 800e-03         (2 %)
    sweep1-001_dc: vout = 11.2          (28 %), step = 800e-03         (2 %)
    sweep1-001_dc: vout = 12            (30 %), step = 800e-03         (2 %)
    sweep1-001_dc: vout = 12.8          (32 %), step = 800e-03         (2 %)
    sweep1-001_dc: vout = 13.6          (34 %), step = 800e-03         (2 %)
    sweep1-001_dc: vout = 14.4          (36 %), step = 800e-03         (2 %)
    sweep1-001_dc: vout = 15.2          (38 %), step = 800e-03         (2 %)
    sweep1-001_dc: vout = 16            (40 %), step = 800e-03         (2 %)
    sweep1-001_dc: vout = 16.8          (42 %), step = 800e-03         (2 %)
    sweep1-001_dc: vout = 17.6          (44 %), step = 800e-03         (2 %)
    sweep1-001_dc: vout = 18.4          (46 %), step = 800e-03         (2 %)
    sweep1-001_dc: vout = 19.2          (48 %), step = 800e-03         (2 %)
    sweep1-001_dc: vout = 20            (50 %), step = 800e-03         (2 %)
    sweep1-001_dc: vout = 20.8          (52 %), step = 800e-03         (2 %)
    sweep1-001_dc: vout = 21.6          (54 %), step = 800e-03         (2 %)
    sweep1-001_dc: vout = 22.4          (56 %), step = 800e-03         (2 %)
    sweep1-001_dc: vout = 23.2          (58 %), step = 800e-03         (2 %)
    sweep1-001_dc: vout = 24            (60 %), step = 800e-03         (2 %)
    sweep1-001_dc: vout = 24.8          (62 %), step = 800e-03         (2 %)
    sweep1-001_dc: vout = 25.6          (64 %), step = 800e-03         (2 %)
    sweep1-001_dc: vout = 26.4          (66 %), step = 800e-03         (2 %)
    sweep1-001_dc: vout = 27.2          (68 %), step = 800e-03         (2 %)
    sweep1-001_dc: vout = 28            (70 %), step = 800e-03         (2 %)
    sweep1-001_dc: vout = 28.8          (72 %), step = 800e-03         (2 %)
    sweep1-001_dc: vout = 29.6          (74 %), step = 800e-03         (2 %)
    sweep1-001_dc: vout = 30.4          (76 %), step = 800e-03         (2 %)
    sweep1-001_dc: vout = 31.2          (78 %), step = 800e-03         (2 %)
    sweep1-001_dc: vout = 32            (80 %), step = 800e-03         (2 %)
    sweep1-001_dc: vout = 32.8          (82 %), step = 800e-03         (2 %)
    sweep1-001_dc: vout = 33.6          (84 %), step = 800e-03         (2 %)
    sweep1-001_dc: vout = 34.4          (86 %), step = 800e-03         (2 %)
    sweep1-001_dc: vout = 35.2          (88 %), step = 800e-03         (2 %)
    sweep1-001_dc: vout = 36            (90 %), step = 800e-03         (2 %)
    sweep1-001_dc: vout = 36.8          (92 %), step = 800e-03         (2 %)
    sweep1-001_dc: vout = 37.6          (94 %), step = 800e-03         (2 %)
    sweep1-001_dc: vout = 38.4          (96 %), step = 800e-03         (2 %)
    sweep1-001_dc: vout = 39.2          (98 %), step = 800e-03         (2 %)
    sweep1-001_dc: vout = 40           (100 %), step = 800e-03         (2 %)

Maximum value achieved for any signal of each quantity: 
V: V(net84) = 40 V
I: I(M0:1) = 5.187 mA
sweep1-001_dc: writing operating point information to rawfile.

Opening the PSF file ../psf/sweep1-001_dc.info ...
DC simulation time: CPU = 340.582 ms, elapsed = 345.374 ms.

Notice from spectre at vout = 40 during DC analysis `sweep1-001_dc', during Sweep analysis `sweep1'.
    The value of parameter 'vout' has been reset to the original value 20.

Total time required for dc analysis `sweep1-001_dc': CPU = 340.666 ms, elapsed = 345.454 ms.
Time accumulated: CPU = 1.5153 s, elapsed = 1.60048 s.
Peak resident memory used = 87.8 Mbytes.


Notice from spectre during Sweep analysis `sweep1'.
    92 notices suppressed.

sweep1-001_modelParameter: writing model parameter values to rawfile.

Opening the PSF file ../psf/sweep1-001_modelParameter.info ...
sweep1-001_element: writing instance parameter values to rawfile.

Opening the PSF file ../psf/sweep1-001_element.info ...
sweep1-001_outputParameter: writing output parameter values to rawfile.

Opening the PSF file ../psf/sweep1-001_outputParameter.info ...
sweep1-001_designParamVals: writing netlist parameters to rawfile.

Opening the PSFASCII file ../psf/sweep1-001_designParamVals.info ...
sweep1-001_primitives: writing primitives to rawfile.

Opening the PSFASCII file ../psf/sweep1-001_primitives.info.primitives ...
sweep1-001_subckts: writing subcircuits to rawfile.

Opening the PSFASCII file ../psf/sweep1-001_subckts.info.subckts ...

++++++++++++++++++++++++++++++++++++++++
sweep1: iteration_sweep1 = 3 (33.3333 %)
++++++++++++++++++++++++++++++++++++++++
Time for sweep1 itNum=2: CPU = 51.807 ms, elapsed = 74.3198 ms.
Time accumulated: CPU = 1.5673 s, elapsed = 1.67498 s.
Peak resident memory used = 87.8 Mbytes.


*****************************
DC Analysis `sweep1-002_dcOp'
*****************************

Opening the PSF file ../psf/sweep1-002_dcOp.dc ...
Important parameter values:
    reltol = 100e-06
    abstol(V) = 1 uV
    abstol(I) = 1 pA
    temp = 27 C
    tnom = 27 C
    tempeffects = all
    gmindc = 1 pS
Trying `homotopy = gmin'.

Notice from spectre during DC analysis `sweep1-002_dcOp', during Sweep analysis `sweep1'.
    GminDC = 1 pS is large enough to noticeably affect the DC solution.
        dV(I17.M4.m1:int_d) = 21.9669 mV
        Use the `gmin_check' option to eliminate or expand this report.
    Bad pivoting is found during DC analysis. Option dc_pivot_check=yes is recommended for possible improvement of convergence.


Maximum value achieved for any signal of each quantity: 
V: V(vddh) = 40 V
I: I(M0:1) = 10.26 mA
Convergence achieved in 305 iterations.
DC simulation time: CPU = 64.364 ms, elapsed = 66.793 ms.
Total time required for dc analysis `sweep1-002_dcOp': CPU = 64.875 ms, elapsed = 67.3029 ms.
Time accumulated: CPU = 1.63284 s, elapsed = 1.74294 s.
Peak resident memory used = 87.8 Mbytes.

sweep1-002_dcOpInfo: writing operating point information to rawfile.

Opening the PSF file ../psf/sweep1-002_dcOpInfo.info ...

*********************************************
DC Analysis `sweep1-002_dc': vout = (0 -> 40)
*********************************************

Opening the PSF file ../psf/sweep1-002_dc.dc ...
Important parameter values:
    reltol = 100e-06
    abstol(V) = 1 uV
    abstol(I) = 1 pA
    temp = 27 C
    tnom = 27 C
    tempeffects = all
    gmindc = 1 pS
Trying `homotopy = gmin'.

Notice from spectre at vout = 0 during DC analysis `sweep1-002_dc', during Sweep analysis `sweep1'.
    GminDC = 1 pS is large enough to noticeably affect the DC solution.
        dV(I17.M4.m1:int_d) = 21.9669 mV
        Use the `gmin_check' option to eliminate or expand this report.
    Bad pivoting is found during DC analysis. Option dc_pivot_check=yes is recommended for possible improvement of convergence.
Notice from spectre at vout = 800e-03 during DC analysis `sweep1-002_dc', during Sweep analysis `sweep1'.
    GminDC = 1 pS is large enough to noticeably affect the DC solution.
        dV(I17.M4.m1:int_d) = 21.9669 mV
        Use the `gmin_check' option to eliminate or expand this report.
    Bad pivoting is found during DC analysis. Option dc_pivot_check=yes is recommended for possible improvement of convergence.
Notice from spectre at vout = 1.6 during DC analysis `sweep1-002_dc', during Sweep analysis `sweep1'.
    GminDC = 1 pS is large enough to noticeably affect the DC solution.
        dV(I17.M4.m1:int_d) = 21.9669 mV
        Use the `gmin_check' option to eliminate or expand this report.
    Bad pivoting is found during DC analysis. Option dc_pivot_check=yes is recommended for possible improvement of convergence.

    sweep1-002_dc: vout = 1.6            (4 %), step = 800e-03         (2 %)

Notice from spectre at vout = 2.4 during DC analysis `sweep1-002_dc', during Sweep analysis `sweep1'.
    GminDC = 1 pS is large enough to noticeably affect the DC solution.
        dV(I17.M4.m1:int_d) = 21.9669 mV
        Use the `gmin_check' option to eliminate or expand this report.
    Bad pivoting is found during DC analysis. Option dc_pivot_check=yes is recommended for possible improvement of convergence.

    sweep1-002_dc: vout = 2.4            (6 %), step = 800e-03         (2 %)

Notice from spectre at vout = 3.2 during DC analysis `sweep1-002_dc', during Sweep analysis `sweep1'.
    GminDC = 1 pS is large enough to noticeably affect the DC solution.
        Further occurrences of this notice will be suppressed.
        dV(I17.M4.m1:int_d) = 21.9669 mV
        Further occurrences of this notice will be suppressed.
        Use the `gmin_check' option to eliminate or expand this report.
        Further occurrences of this notice will be suppressed.
    Bad pivoting is found during DC analysis. Option dc_pivot_check=yes is recommended for possible improvement of convergence.
        Further occurrences of this notice will be suppressed.

    sweep1-002_dc: vout = 3.2            (8 %), step = 800e-03         (2 %)
    sweep1-002_dc: vout = 4             (10 %), step = 800e-03         (2 %)
    sweep1-002_dc: vout = 4.8           (12 %), step = 800e-03         (2 %)
    sweep1-002_dc: vout = 5.6           (14 %), step = 800e-03         (2 %)
    sweep1-002_dc: vout = 6.4           (16 %), step = 800e-03         (2 %)
    sweep1-002_dc: vout = 7.2           (18 %), step = 800e-03         (2 %)
    sweep1-002_dc: vout = 8             (20 %), step = 800e-03         (2 %)
    sweep1-002_dc: vout = 8.8           (22 %), step = 800e-03         (2 %)
    sweep1-002_dc: vout = 9.6           (24 %), step = 800e-03         (2 %)
    sweep1-002_dc: vout = 10.4          (26 %), step = 800e-03         (2 %)
    sweep1-002_dc: vout = 11.2          (28 %), step = 800e-03         (2 %)
    sweep1-002_dc: vout = 12            (30 %), step = 800e-03         (2 %)
    sweep1-002_dc: vout = 12.8          (32 %), step = 800e-03         (2 %)
    sweep1-002_dc: vout = 13.6          (34 %), step = 800e-03         (2 %)
    sweep1-002_dc: vout = 14.4          (36 %), step = 800e-03         (2 %)
    sweep1-002_dc: vout = 15.2          (38 %), step = 800e-03         (2 %)
    sweep1-002_dc: vout = 16            (40 %), step = 800e-03         (2 %)
    sweep1-002_dc: vout = 16.8          (42 %), step = 800e-03         (2 %)
    sweep1-002_dc: vout = 17.6          (44 %), step = 800e-03         (2 %)
    sweep1-002_dc: vout = 18.4          (46 %), step = 800e-03         (2 %)
    sweep1-002_dc: vout = 19.2          (48 %), step = 800e-03         (2 %)
    sweep1-002_dc: vout = 20            (50 %), step = 800e-03         (2 %)
    sweep1-002_dc: vout = 20.8          (52 %), step = 800e-03         (2 %)
    sweep1-002_dc: vout = 21.6          (54 %), step = 800e-03         (2 %)
    sweep1-002_dc: vout = 22.4          (56 %), step = 800e-03         (2 %)
    sweep1-002_dc: vout = 23.2          (58 %), step = 800e-03         (2 %)
    sweep1-002_dc: vout = 24            (60 %), step = 800e-03         (2 %)
    sweep1-002_dc: vout = 24.8          (62 %), step = 800e-03         (2 %)
    sweep1-002_dc: vout = 25.6          (64 %), step = 800e-03         (2 %)
    sweep1-002_dc: vout = 26.4          (66 %), step = 800e-03         (2 %)
    sweep1-002_dc: vout = 27.2          (68 %), step = 800e-03         (2 %)
    sweep1-002_dc: vout = 28            (70 %), step = 800e-03         (2 %)
    sweep1-002_dc: vout = 28.8          (72 %), step = 800e-03         (2 %)
    sweep1-002_dc: vout = 29.6          (74 %), step = 800e-03         (2 %)
    sweep1-002_dc: vout = 30.4          (76 %), step = 800e-03         (2 %)
    sweep1-002_dc: vout = 31.2          (78 %), step = 800e-03         (2 %)
    sweep1-002_dc: vout = 32            (80 %), step = 800e-03         (2 %)
    sweep1-002_dc: vout = 32.8          (82 %), step = 800e-03         (2 %)
    sweep1-002_dc: vout = 33.6          (84 %), step = 800e-03         (2 %)
    sweep1-002_dc: vout = 34.4          (86 %), step = 800e-03         (2 %)
    sweep1-002_dc: vout = 35.2          (88 %), step = 800e-03         (2 %)
    sweep1-002_dc: vout = 36            (90 %), step = 800e-03         (2 %)
    sweep1-002_dc: vout = 36.8          (92 %), step = 800e-03         (2 %)
    sweep1-002_dc: vout = 37.6          (94 %), step = 800e-03         (2 %)
    sweep1-002_dc: vout = 38.4          (96 %), step = 800e-03         (2 %)
    sweep1-002_dc: vout = 39.2          (98 %), step = 800e-03         (2 %)
    sweep1-002_dc: vout = 40           (100 %), step = 800e-03         (2 %)

Maximum value achieved for any signal of each quantity: 
V: V(net84) = 40 V
I: I(M0:1) = 10.31 mA
sweep1-002_dc: writing operating point information to rawfile.

Opening the PSF file ../psf/sweep1-002_dc.info ...
DC simulation time: CPU = 363.939 ms, elapsed = 368.697 ms.

Notice from spectre at vout = 40 during DC analysis `sweep1-002_dc', during Sweep analysis `sweep1'.
    The value of parameter 'vout' has been reset to the original value 20.

Total time required for dc analysis `sweep1-002_dc': CPU = 364.083 ms, elapsed = 368.836 ms.
Time accumulated: CPU = 2.01387 s, elapsed = 2.13124 s.
Peak resident memory used = 87.8 Mbytes.


Notice from spectre during Sweep analysis `sweep1'.
    92 notices suppressed.

sweep1-002_modelParameter: writing model parameter values to rawfile.

Opening the PSF file ../psf/sweep1-002_modelParameter.info ...
sweep1-002_element: writing instance parameter values to rawfile.

Opening the PSF file ../psf/sweep1-002_element.info ...
sweep1-002_outputParameter: writing output parameter values to rawfile.

Opening the PSF file ../psf/sweep1-002_outputParameter.info ...
sweep1-002_designParamVals: writing netlist parameters to rawfile.

Opening the PSFASCII file ../psf/sweep1-002_designParamVals.info ...
sweep1-002_primitives: writing primitives to rawfile.

Opening the PSFASCII file ../psf/sweep1-002_primitives.info.primitives ...
sweep1-002_subckts: writing subcircuits to rawfile.

Opening the PSFASCII file ../psf/sweep1-002_subckts.info.subckts ...

+++++++++++++++++++++++++++++++++++
sweep1: iteration_sweep1 = 4 (50 %)
+++++++++++++++++++++++++++++++++++
Time for sweep1 itNum=3: CPU = 42.347 ms, elapsed = 63.5829 ms.
Time accumulated: CPU = 2.05637 s, elapsed = 2.19497 s.
Peak resident memory used = 87.8 Mbytes.


*****************************
DC Analysis `sweep1-003_dcOp'
*****************************

Opening the PSF file ../psf/sweep1-003_dcOp.dc ...
Important parameter values:
    reltol = 100e-06
    abstol(V) = 1 uV
    abstol(I) = 1 pA
    temp = 27 C
    tnom = 27 C
    tempeffects = all
    gmindc = 1 pS
Trying `homotopy = gmin'.

Notice from spectre during DC analysis `sweep1-003_dcOp', during Sweep analysis `sweep1'.
    GminDC = 1 pS is large enough to noticeably affect the DC solution.
        dV(I17.M4.m1:int_d) = 21.9669 mV
        Use the `gmin_check' option to eliminate or expand this report.
    Bad pivoting is found during DC analysis. Option dc_pivot_check=yes is recommended for possible improvement of convergence.


Maximum value achieved for any signal of each quantity: 
V: V(vddh) = 40 V
I: I(M0:1) = 15.5 mA
Convergence achieved in 299 iterations.
DC simulation time: CPU = 49.618 ms, elapsed = 51.929 ms.
Total time required for dc analysis `sweep1-003_dcOp': CPU = 49.992 ms, elapsed = 52.304 ms.
Time accumulated: CPU = 2.10684 s, elapsed = 2.24775 s.
Peak resident memory used = 87.8 Mbytes.

sweep1-003_dcOpInfo: writing operating point information to rawfile.

Opening the PSF file ../psf/sweep1-003_dcOpInfo.info ...

*********************************************
DC Analysis `sweep1-003_dc': vout = (0 -> 40)
*********************************************

Opening the PSF file ../psf/sweep1-003_dc.dc ...
Important parameter values:
    reltol = 100e-06
    abstol(V) = 1 uV
    abstol(I) = 1 pA
    temp = 27 C
    tnom = 27 C
    tempeffects = all
    gmindc = 1 pS
Trying `homotopy = gmin'.

Notice from spectre at vout = 0 during DC analysis `sweep1-003_dc', during Sweep analysis `sweep1'.
    GminDC = 1 pS is large enough to noticeably affect the DC solution.
        dV(I17.M4.m1:int_d) = 21.9669 mV
        Use the `gmin_check' option to eliminate or expand this report.
    Bad pivoting is found during DC analysis. Option dc_pivot_check=yes is recommended for possible improvement of convergence.
Notice from spectre at vout = 800e-03 during DC analysis `sweep1-003_dc', during Sweep analysis `sweep1'.
    GminDC = 1 pS is large enough to noticeably affect the DC solution.
        dV(I17.M4.m1:int_d) = 21.9669 mV
        Use the `gmin_check' option to eliminate or expand this report.
    Bad pivoting is found during DC analysis. Option dc_pivot_check=yes is recommended for possible improvement of convergence.
Notice from spectre at vout = 1.6 during DC analysis `sweep1-003_dc', during Sweep analysis `sweep1'.
    GminDC = 1 pS is large enough to noticeably affect the DC solution.
        dV(I17.M4.m1:int_d) = 21.9669 mV
        Use the `gmin_check' option to eliminate or expand this report.
    Bad pivoting is found during DC analysis. Option dc_pivot_check=yes is recommended for possible improvement of convergence.

    sweep1-003_dc: vout = 1.6            (4 %), step = 800e-03         (2 %)

Notice from spectre at vout = 2.4 during DC analysis `sweep1-003_dc', during Sweep analysis `sweep1'.
    GminDC = 1 pS is large enough to noticeably affect the DC solution.
        dV(I17.M4.m1:int_d) = 21.9669 mV
        Use the `gmin_check' option to eliminate or expand this report.
    Bad pivoting is found during DC analysis. Option dc_pivot_check=yes is recommended for possible improvement of convergence.

    sweep1-003_dc: vout = 2.4            (6 %), step = 800e-03         (2 %)

Notice from spectre at vout = 3.2 during DC analysis `sweep1-003_dc', during Sweep analysis `sweep1'.
    GminDC = 1 pS is large enough to noticeably affect the DC solution.
        Further occurrences of this notice will be suppressed.
        dV(I17.M4.m1:int_d) = 21.9669 mV
        Further occurrences of this notice will be suppressed.
        Use the `gmin_check' option to eliminate or expand this report.
        Further occurrences of this notice will be suppressed.
    Bad pivoting is found during DC analysis. Option dc_pivot_check=yes is recommended for possible improvement of convergence.
        Further occurrences of this notice will be suppressed.

    sweep1-003_dc: vout = 3.2            (8 %), step = 800e-03         (2 %)
    sweep1-003_dc: vout = 4             (10 %), step = 800e-03         (2 %)
    sweep1-003_dc: vout = 4.8           (12 %), step = 800e-03         (2 %)
    sweep1-003_dc: vout = 5.6           (14 %), step = 800e-03         (2 %)
    sweep1-003_dc: vout = 6.4           (16 %), step = 800e-03         (2 %)
    sweep1-003_dc: vout = 7.2           (18 %), step = 800e-03         (2 %)
    sweep1-003_dc: vout = 8             (20 %), step = 800e-03         (2 %)
    sweep1-003_dc: vout = 8.8           (22 %), step = 800e-03         (2 %)
    sweep1-003_dc: vout = 9.6           (24 %), step = 800e-03         (2 %)
    sweep1-003_dc: vout = 10.4          (26 %), step = 800e-03         (2 %)
    sweep1-003_dc: vout = 11.2          (28 %), step = 800e-03         (2 %)
    sweep1-003_dc: vout = 12            (30 %), step = 800e-03         (2 %)
    sweep1-003_dc: vout = 12.8          (32 %), step = 800e-03         (2 %)
    sweep1-003_dc: vout = 13.6          (34 %), step = 800e-03         (2 %)
    sweep1-003_dc: vout = 14.4          (36 %), step = 800e-03         (2 %)
    sweep1-003_dc: vout = 15.2          (38 %), step = 800e-03         (2 %)
    sweep1-003_dc: vout = 16            (40 %), step = 800e-03         (2 %)
    sweep1-003_dc: vout = 16.8          (42 %), step = 800e-03         (2 %)
    sweep1-003_dc: vout = 17.6          (44 %), step = 800e-03         (2 %)
    sweep1-003_dc: vout = 18.4          (46 %), step = 800e-03         (2 %)
    sweep1-003_dc: vout = 19.2          (48 %), step = 800e-03         (2 %)
    sweep1-003_dc: vout = 20            (50 %), step = 800e-03         (2 %)
    sweep1-003_dc: vout = 20.8          (52 %), step = 800e-03         (2 %)
    sweep1-003_dc: vout = 21.6          (54 %), step = 800e-03         (2 %)
    sweep1-003_dc: vout = 22.4          (56 %), step = 800e-03         (2 %)
    sweep1-003_dc: vout = 23.2          (58 %), step = 800e-03         (2 %)
    sweep1-003_dc: vout = 24            (60 %), step = 800e-03         (2 %)
    sweep1-003_dc: vout = 24.8          (62 %), step = 800e-03         (2 %)
    sweep1-003_dc: vout = 25.6          (64 %), step = 800e-03         (2 %)
    sweep1-003_dc: vout = 26.4          (66 %), step = 800e-03         (2 %)
    sweep1-003_dc: vout = 27.2          (68 %), step = 800e-03         (2 %)
    sweep1-003_dc: vout = 28            (70 %), step = 800e-03         (2 %)
    sweep1-003_dc: vout = 28.8          (72 %), step = 800e-03         (2 %)
    sweep1-003_dc: vout = 29.6          (74 %), step = 800e-03         (2 %)
    sweep1-003_dc: vout = 30.4          (76 %), step = 800e-03         (2 %)
    sweep1-003_dc: vout = 31.2          (78 %), step = 800e-03         (2 %)
    sweep1-003_dc: vout = 32            (80 %), step = 800e-03         (2 %)
    sweep1-003_dc: vout = 32.8          (82 %), step = 800e-03         (2 %)
    sweep1-003_dc: vout = 33.6          (84 %), step = 800e-03         (2 %)
    sweep1-003_dc: vout = 34.4          (86 %), step = 800e-03         (2 %)
    sweep1-003_dc: vout = 35.2          (88 %), step = 800e-03         (2 %)
    sweep1-003_dc: vout = 36            (90 %), step = 800e-03         (2 %)
    sweep1-003_dc: vout = 36.8          (92 %), step = 800e-03         (2 %)
    sweep1-003_dc: vout = 37.6          (94 %), step = 800e-03         (2 %)
    sweep1-003_dc: vout = 38.4          (96 %), step = 800e-03         (2 %)
    sweep1-003_dc: vout = 39.2          (98 %), step = 800e-03         (2 %)
    sweep1-003_dc: vout = 40           (100 %), step = 800e-03         (2 %)

Maximum value achieved for any signal of each quantity: 
V: V(net84) = 40 V
I: I(M0:1) = 15.56 mA
sweep1-003_dc: writing operating point information to rawfile.

Opening the PSF file ../psf/sweep1-003_dc.info ...
DC simulation time: CPU = 336.166 ms, elapsed = 340.864 ms.

Notice from spectre at vout = 40 during DC analysis `sweep1-003_dc', during Sweep analysis `sweep1'.
    The value of parameter 'vout' has been reset to the original value 20.

Total time required for dc analysis `sweep1-003_dc': CPU = 336.241 ms, elapsed = 340.937 ms.
Time accumulated: CPU = 2.45411 s, elapsed = 2.60208 s.
Peak resident memory used = 87.8 Mbytes.


Notice from spectre during Sweep analysis `sweep1'.
    92 notices suppressed.

sweep1-003_modelParameter: writing model parameter values to rawfile.

Opening the PSF file ../psf/sweep1-003_modelParameter.info ...
sweep1-003_element: writing instance parameter values to rawfile.

Opening the PSF file ../psf/sweep1-003_element.info ...
sweep1-003_outputParameter: writing output parameter values to rawfile.

Opening the PSF file ../psf/sweep1-003_outputParameter.info ...
sweep1-003_designParamVals: writing netlist parameters to rawfile.

Opening the PSFASCII file ../psf/sweep1-003_designParamVals.info ...
sweep1-003_primitives: writing primitives to rawfile.

Opening the PSFASCII file ../psf/sweep1-003_primitives.info.primitives ...
sweep1-003_subckts: writing subcircuits to rawfile.

Opening the PSFASCII file ../psf/sweep1-003_subckts.info.subckts ...

++++++++++++++++++++++++++++++++++++++++
sweep1: iteration_sweep1 = 5 (66.6667 %)
++++++++++++++++++++++++++++++++++++++++
Time for sweep1 itNum=4: CPU = 52.716 ms, elapsed = 74.6958 ms.
Time accumulated: CPU = 2.50699 s, elapsed = 2.67694 s.
Peak resident memory used = 87.8 Mbytes.


*****************************
DC Analysis `sweep1-004_dcOp'
*****************************

Opening the PSF file ../psf/sweep1-004_dcOp.dc ...
Important parameter values:
    reltol = 100e-06
    abstol(V) = 1 uV
    abstol(I) = 1 pA
    temp = 27 C
    tnom = 27 C
    tempeffects = all
    gmindc = 1 pS

Notice from spectre during DC analysis `sweep1-004_dcOp', during Sweep analysis `sweep1'.
    GminDC = 1 pS is large enough to noticeably affect the DC solution.
        dV(I17.M4.m1:int_d) = 21.9669 mV
        Use the `gmin_check' option to eliminate or expand this report.
    Bad pivoting is found during DC analysis. Option dc_pivot_check=yes is recommended for possible improvement of convergence.


Maximum value achieved for any signal of each quantity: 
V: V(vddh) = 40 V
I: I(M0:1) = 20.96 mA
Convergence achieved in 124 iterations.
DC simulation time: CPU = 29.536 ms, elapsed = 31.9529 ms.
Total time required for dc analysis `sweep1-004_dcOp': CPU = 30.041 ms, elapsed = 32.4571 ms.
Time accumulated: CPU = 2.53769 s, elapsed = 2.71005 s.
Peak resident memory used = 87.8 Mbytes.

sweep1-004_dcOpInfo: writing operating point information to rawfile.

Opening the PSF file ../psf/sweep1-004_dcOpInfo.info ...

*********************************************
DC Analysis `sweep1-004_dc': vout = (0 -> 40)
*********************************************

Opening the PSF file ../psf/sweep1-004_dc.dc ...
Important parameter values:
    reltol = 100e-06
    abstol(V) = 1 uV
    abstol(I) = 1 pA
    temp = 27 C
    tnom = 27 C
    tempeffects = all
    gmindc = 1 pS

Notice from spectre at vout = 0 during DC analysis `sweep1-004_dc', during Sweep analysis `sweep1'.
    GminDC = 1 pS is large enough to noticeably affect the DC solution.
        dV(I17.M4.m1:int_d) = 21.9669 mV
        Use the `gmin_check' option to eliminate or expand this report.
    Bad pivoting is found during DC analysis. Option dc_pivot_check=yes is recommended for possible improvement of convergence.
Notice from spectre at vout = 800e-03 during DC analysis `sweep1-004_dc', during Sweep analysis `sweep1'.
    GminDC = 1 pS is large enough to noticeably affect the DC solution.
        dV(I17.M4.m1:int_d) = 21.9669 mV
        Use the `gmin_check' option to eliminate or expand this report.
    Bad pivoting is found during DC analysis. Option dc_pivot_check=yes is recommended for possible improvement of convergence.
Notice from spectre at vout = 1.6 during DC analysis `sweep1-004_dc', during Sweep analysis `sweep1'.
    GminDC = 1 pS is large enough to noticeably affect the DC solution.
        dV(I17.M4.m1:int_d) = 21.9669 mV
        Use the `gmin_check' option to eliminate or expand this report.
    Bad pivoting is found during DC analysis. Option dc_pivot_check=yes is recommended for possible improvement of convergence.

    sweep1-004_dc: vout = 1.6            (4 %), step = 800e-03         (2 %)

Notice from spectre at vout = 2.4 during DC analysis `sweep1-004_dc', during Sweep analysis `sweep1'.
    GminDC = 1 pS is large enough to noticeably affect the DC solution.
        dV(I17.M4.m1:int_d) = 21.9669 mV
        Use the `gmin_check' option to eliminate or expand this report.
    Bad pivoting is found during DC analysis. Option dc_pivot_check=yes is recommended for possible improvement of convergence.

    sweep1-004_dc: vout = 2.4            (6 %), step = 800e-03         (2 %)

Notice from spectre at vout = 3.2 during DC analysis `sweep1-004_dc', during Sweep analysis `sweep1'.
    GminDC = 1 pS is large enough to noticeably affect the DC solution.
        Further occurrences of this notice will be suppressed.
        dV(I17.M4.m1:int_d) = 21.9669 mV
        Further occurrences of this notice will be suppressed.
        Use the `gmin_check' option to eliminate or expand this report.
        Further occurrences of this notice will be suppressed.
    Bad pivoting is found during DC analysis. Option dc_pivot_check=yes is recommended for possible improvement of convergence.
        Further occurrences of this notice will be suppressed.

    sweep1-004_dc: vout = 3.2            (8 %), step = 800e-03         (2 %)
    sweep1-004_dc: vout = 4             (10 %), step = 800e-03         (2 %)
    sweep1-004_dc: vout = 4.8           (12 %), step = 800e-03         (2 %)
    sweep1-004_dc: vout = 5.6           (14 %), step = 800e-03         (2 %)
    sweep1-004_dc: vout = 6.4           (16 %), step = 800e-03         (2 %)
    sweep1-004_dc: vout = 7.2           (18 %), step = 800e-03         (2 %)
    sweep1-004_dc: vout = 8             (20 %), step = 800e-03         (2 %)
    sweep1-004_dc: vout = 8.8           (22 %), step = 800e-03         (2 %)
    sweep1-004_dc: vout = 9.6           (24 %), step = 800e-03         (2 %)
    sweep1-004_dc: vout = 10.4          (26 %), step = 800e-03         (2 %)
    sweep1-004_dc: vout = 11.2          (28 %), step = 800e-03         (2 %)
    sweep1-004_dc: vout = 12            (30 %), step = 800e-03         (2 %)
    sweep1-004_dc: vout = 12.8          (32 %), step = 800e-03         (2 %)
    sweep1-004_dc: vout = 13.6          (34 %), step = 800e-03         (2 %)
    sweep1-004_dc: vout = 14.4          (36 %), step = 800e-03         (2 %)
    sweep1-004_dc: vout = 15.2          (38 %), step = 800e-03         (2 %)
    sweep1-004_dc: vout = 16            (40 %), step = 800e-03         (2 %)
    sweep1-004_dc: vout = 16.8          (42 %), step = 800e-03         (2 %)
    sweep1-004_dc: vout = 17.6          (44 %), step = 800e-03         (2 %)
    sweep1-004_dc: vout = 18.4          (46 %), step = 800e-03         (2 %)
    sweep1-004_dc: vout = 19.2          (48 %), step = 800e-03         (2 %)
    sweep1-004_dc: vout = 20            (50 %), step = 800e-03         (2 %)
    sweep1-004_dc: vout = 20.8          (52 %), step = 800e-03         (2 %)
    sweep1-004_dc: vout = 21.6          (54 %), step = 800e-03         (2 %)
    sweep1-004_dc: vout = 22.4          (56 %), step = 800e-03         (2 %)
    sweep1-004_dc: vout = 23.2          (58 %), step = 800e-03         (2 %)
    sweep1-004_dc: vout = 24            (60 %), step = 800e-03         (2 %)
    sweep1-004_dc: vout = 24.8          (62 %), step = 800e-03         (2 %)
    sweep1-004_dc: vout = 25.6          (64 %), step = 800e-03         (2 %)
[...]

Opening the PSF file ../psf/sweep1-004_outputParameter.info ...
sweep1-004_designParamVals: writing netlist parameters to rawfile.

Opening the PSFASCII file ../psf/sweep1-004_designParamVals.info ...
sweep1-004_primitives: writing primitives to rawfile.

Opening the PSFASCII file ../psf/sweep1-004_primitives.info.primitives ...
sweep1-004_subckts: writing subcircuits to rawfile.

Opening the PSFASCII file ../psf/sweep1-004_subckts.info.subckts ...

++++++++++++++++++++++++++++++++++++++++
sweep1: iteration_sweep1 = 6 (83.3333 %)
++++++++++++++++++++++++++++++++++++++++
Time for sweep1 itNum=5: CPU = 53.622 ms, elapsed = 75.6061 ms.
Time accumulated: CPU = 2.90982 s, elapsed = 3.11144 s.
Peak resident memory used = 87.8 Mbytes.


*****************************
DC Analysis `sweep1-005_dcOp'
*****************************

Opening the PSF file ../psf/sweep1-005_dcOp.dc ...
Important parameter values:
    reltol = 100e-06
    abstol(V) = 1 uV
    abstol(I) = 1 pA
    temp = 27 C
    tnom = 27 C
    tempeffects = all
    gmindc = 1 pS

Notice from spectre during DC analysis `sweep1-005_dcOp', during Sweep analysis `sweep1'.
    GminDC = 1 pS is large enough to noticeably affect the DC solution.
        dV(I17.M4.m1:int_d) = 21.9669 mV
        Use the `gmin_check' option to eliminate or expand this report.
    Bad pivoting is found during DC analysis. Option dc_pivot_check=yes is recommended for possible improvement of convergence.


Maximum value achieved for any signal of each quantity: 
V: V(vddh) = 40 V
I: I(M0:1) = 25.44 mA
Convergence achieved in 69 iterations.
DC simulation time: CPU = 19.397 ms, elapsed = 21.8561 ms.
Total time required for dc analysis `sweep1-005_dcOp': CPU = 19.918 ms, elapsed = 22.3749 ms.
Time accumulated: CPU = 2.93047 s, elapsed = 3.13454 s.
Peak resident memory used = 87.8 Mbytes.

sweep1-005_dcOpInfo: writing operating point information to rawfile.

Opening the PSF file ../psf/sweep1-005_dcOpInfo.info ...

*********************************************
DC Analysis `sweep1-005_dc': vout = (0 -> 40)
*********************************************

Opening the PSF file ../psf/sweep1-005_dc.dc ...
Important parameter values:
    reltol = 100e-06
    abstol(V) = 1 uV
    abstol(I) = 1 pA
    temp = 27 C
    tnom = 27 C
    tempeffects = all
    gmindc = 1 pS

Notice from spectre at vout = 0 during DC analysis `sweep1-005_dc', during Sweep analysis `sweep1'.
    GminDC = 1 pS is large enough to noticeably affect the DC solution.
        dV(I17.M4.m1:int_d) = 21.9669 mV
        Use the `gmin_check' option to eliminate or expand this report.
    Bad pivoting is found during DC analysis. Option dc_pivot_check=yes is recommended for possible improvement of convergence.
Notice from spectre at vout = 800e-03 during DC analysis `sweep1-005_dc', during Sweep analysis `sweep1'.
    GminDC = 1 pS is large enough to noticeably affect the DC solution.
        dV(I17.M4.m1:int_d) = 21.9669 mV
        Use the `gmin_check' option to eliminate or expand this report.
    Bad pivoting is found during DC analysis. Option dc_pivot_check=yes is recommended for possible improvement of convergence.
Notice from spectre at vout = 1.6 during DC analysis `sweep1-005_dc', during Sweep analysis `sweep1'.
    GminDC = 1 pS is large enough to noticeably affect the DC solution.
        dV(I17.M4.m1:int_d) = 21.9669 mV
        Use the `gmin_check' option to eliminate or expand this report.
    Bad pivoting is found during DC analysis. Option dc_pivot_check=yes is recommended for possible improvement of convergence.

    sweep1-005_dc: vout = 1.6            (4 %), step = 800e-03         (2 %)

Notice from spectre at vout = 2.4 during DC analysis `sweep1-005_dc', during Sweep analysis `sweep1'.
    GminDC = 1 pS is large enough to noticeably affect the DC solution.
        dV(I17.M4.m1:int_d) = 21.9669 mV
        Use the `gmin_check' option to eliminate or expand this report.
    Bad pivoting is found during DC analysis. Option dc_pivot_check=yes is recommended for possible improvement of convergence.

    sweep1-005_dc: vout = 2.4            (6 %), step = 800e-03         (2 %)

Notice from spectre at vout = 3.2 during DC analysis `sweep1-005_dc', during Sweep analysis `sweep1'.
    GminDC = 1 pS is large enough to noticeably affect the DC solution.
        Further occurrences of this notice will be suppressed.
        dV(I17.M4.m1:int_d) = 21.9669 mV
        Further occurrences of this notice will be suppressed.
        Use the `gmin_check' option to eliminate or expand this report.
        Further occurrences of this notice will be suppressed.
    Bad pivoting is found during DC analysis. Option dc_pivot_check=yes is recommended for possible improvement of convergence.
        Further occurrences of this notice will be suppressed.

    sweep1-005_dc: vout = 3.2            (8 %), step = 800e-03         (2 %)
    sweep1-005_dc: vout = 4             (10 %), step = 800e-03         (2 %)
    sweep1-005_dc: vout = 4.8           (12 %), step = 800e-03         (2 %)
    sweep1-005_dc: vout = 5.6           (14 %), step = 800e-03         (2 %)
    sweep1-005_dc: vout = 6.4           (16 %), step = 800e-03         (2 %)
    sweep1-005_dc: vout = 7.2           (18 %), step = 800e-03         (2 %)
    sweep1-005_dc: vout = 8             (20 %), step = 800e-03         (2 %)
    sweep1-005_dc: vout = 8.8           (22 %), step = 800e-03         (2 %)
    sweep1-005_dc: vout = 9.6           (24 %), step = 800e-03         (2 %)
    sweep1-005_dc: vout = 10.4          (26 %), step = 800e-03         (2 %)
    sweep1-005_dc: vout = 11.2          (28 %), step = 800e-03         (2 %)
    sweep1-005_dc: vout = 12            (30 %), step = 800e-03         (2 %)
    sweep1-005_dc: vout = 12.8          (32 %), step = 800e-03         (2 %)
    sweep1-005_dc: vout = 13.6          (34 %), step = 800e-03         (2 %)
    sweep1-005_dc: vout = 14.4          (36 %), step = 800e-03         (2 %)
    sweep1-005_dc: vout = 15.2          (38 %), step = 800e-03         (2 %)
    sweep1-005_dc: vout = 16            (40 %), step = 800e-03         (2 %)
    sweep1-005_dc: vout = 16.8          (42 %), step = 800e-03         (2 %)
    sweep1-005_dc: vout = 17.6          (44 %), step = 800e-03         (2 %)
    sweep1-005_dc: vout = 18.4          (46 %), step = 800e-03         (2 %)
    sweep1-005_dc: vout = 19.2          (48 %), step = 800e-03         (2 %)
    sweep1-005_dc: vout = 20            (50 %), step = 800e-03         (2 %)
    sweep1-005_dc: vout = 20.8          (52 %), step = 800e-03         (2 %)
    sweep1-005_dc: vout = 21.6          (54 %), step = 800e-03         (2 %)
    sweep1-005_dc: vout = 22.4          (56 %), step = 800e-03         (2 %)
    sweep1-005_dc: vout = 23.2          (58 %), step = 800e-03         (2 %)
    sweep1-005_dc: vout = 24            (60 %), step = 800e-03         (2 %)
    sweep1-005_dc: vout = 24.8          (62 %), step = 800e-03         (2 %)
    sweep1-005_dc: vout = 25.6          (64 %), step = 800e-03         (2 %)
    sweep1-005_dc: vout = 26.4          (66 %), step = 800e-03         (2 %)
    sweep1-005_dc: vout = 27.2          (68 %), step = 800e-03         (2 %)
    sweep1-005_dc: vout = 28            (70 %), step = 800e-03         (2 %)
    sweep1-005_dc: vout = 28.8          (72 %), step = 800e-03         (2 %)
    sweep1-005_dc: vout = 29.6          (74 %), step = 800e-03         (2 %)
    sweep1-005_dc: vout = 30.4          (76 %), step = 800e-03         (2 %)
    sweep1-005_dc: vout = 31.2          (78 %), step = 800e-03         (2 %)
    sweep1-005_dc: vout = 32            (80 %), step = 800e-03         (2 %)
    sweep1-005_dc: vout = 32.8          (82 %), step = 800e-03         (2 %)
    sweep1-005_dc: vout = 33.6          (84 %), step = 800e-03         (2 %)
    sweep1-005_dc: vout = 34.4          (86 %), step = 800e-03         (2 %)
    sweep1-005_dc: vout = 35.2          (88 %), step = 800e-03         (2 %)
    sweep1-005_dc: vout = 36            (90 %), step = 800e-03         (2 %)
    sweep1-005_dc: vout = 36.8          (92 %), step = 800e-03         (2 %)
    sweep1-005_dc: vout = 37.6          (94 %), step = 800e-03         (2 %)
    sweep1-005_dc: vout = 38.4          (96 %), step = 800e-03         (2 %)
    sweep1-005_dc: vout = 39.2          (98 %), step = 800e-03         (2 %)
    sweep1-005_dc: vout = 40           (100 %), step = 800e-03         (2 %)

Maximum value achieved for any signal of each quantity: 
V: V(net84) = 40 V
I: I(M0:1) = 25.52 mA
sweep1-005_dc: writing operating point information to rawfile.

Opening the PSF file ../psf/sweep1-005_dc.info ...
DC simulation time: CPU = 326.538 ms, elapsed = 331.291 ms.

Notice from spectre at vout = 40 during DC analysis `sweep1-005_dc', during Sweep analysis `sweep1'.
    The value of parameter 'vout' has been reset to the original value 20.

Total time required for dc analysis `sweep1-005_dc': CPU = 326.595 ms, elapsed = 331.346 ms.
Time accumulated: CPU = 3.26898 s, elapsed = 3.48027 s.
Peak resident memory used = 87.8 Mbytes.


Notice from spectre during Sweep analysis `sweep1'.
    92 notices suppressed.

sweep1-005_modelParameter: writing model parameter values to rawfile.

Opening the PSF file ../psf/sweep1-005_modelParameter.info ...
sweep1-005_element: writing instance parameter values to rawfile.

Opening the PSF file ../psf/sweep1-005_element.info ...
sweep1-005_outputParameter: writing output parameter values to rawfile.

Opening the PSF file ../psf/sweep1-005_outputParameter.info ...
sweep1-005_designParamVals: writing netlist parameters to rawfile.

Opening the PSFASCII file ../psf/sweep1-005_designParamVals.info ...
sweep1-005_primitives: writing primitives to rawfile.

Opening the PSFASCII file ../psf/sweep1-005_primitives.info.primitives ...
sweep1-005_subckts: writing subcircuits to rawfile.

Opening the PSFASCII file ../psf/sweep1-005_subckts.info.subckts ...

++++++++++++++++++++++++++++++++++++
sweep1: iteration_sweep1 = 7 (100 %)
++++++++++++++++++++++++++++++++++++
Time for sweep1 itNum=6: CPU = 30.097 ms, elapsed = 51.008 ms.
Time accumulated: CPU = 3.29918 s, elapsed = 3.53138 s.
Peak resident memory used = 87.8 Mbytes.


*****************************
DC Analysis `sweep1-006_dcOp'
*****************************

Opening the PSF file ../psf/sweep1-006_dcOp.dc ...
Important parameter values:
    reltol = 100e-06
    abstol(V) = 1 uV
    abstol(I) = 1 pA
    temp = 27 C
    tnom = 27 C
    tempeffects = all
    gmindc = 1 pS

Notice from spectre during DC analysis `sweep1-006_dcOp', during Sweep analysis `sweep1'.
    GminDC = 1 pS is large enough to noticeably affect the DC solution.
        dV(I17.M4.m1:int_d) = 21.9669 mV
        Use the `gmin_check' option to eliminate or expand this report.
    Bad pivoting is found during DC analysis. Option dc_pivot_check=yes is recommended for possible improvement of convergence.


Maximum value achieved for any signal of each quantity: 
V: V(vddh) = 40 V
I: I(M0:1) = 29.91 mA
Convergence achieved in 122 iterations.
DC simulation time: CPU = 18.818 ms, elapsed = 21.147 ms.
Total time required for dc analysis `sweep1-006_dcOp': CPU = 19.126 ms, elapsed = 21.4531 ms.
Time accumulated: CPU = 3.3187 s, elapsed = 3.55323 s.
Peak resident memory used = 87.8 Mbytes.

sweep1-006_dcOpInfo: writing operating point information to rawfile.

Opening the PSF file ../psf/sweep1-006_dcOpInfo.info ...

*********************************************
DC Analysis `sweep1-006_dc': vout = (0 -> 40)
*********************************************

Opening the PSF file ../psf/sweep1-006_dc.dc ...
Important parameter values:
    reltol = 100e-06
    abstol(V) = 1 uV
    abstol(I) = 1 pA
    temp = 27 C
    tnom = 27 C
    tempeffects = all
    gmindc = 1 pS

Notice from spectre at vout = 0 during DC analysis `sweep1-006_dc', during Sweep analysis `sweep1'.
    GminDC = 1 pS is large enough to noticeably affect the DC solution.
        dV(I17.M4.m1:int_d) = 21.9669 mV
        Use the `gmin_check' option to eliminate or expand this report.
    Bad pivoting is found during DC analysis. Option dc_pivot_check=yes is recommended for possible improvement of convergence.
Notice from spectre at vout = 800e-03 during DC analysis `sweep1-006_dc', during Sweep analysis `sweep1'.
    GminDC = 1 pS is large enough to noticeably affect the DC solution.
        dV(I17.M4.m1:int_d) = 21.9669 mV
        Use the `gmin_check' option to eliminate or expand this report.
    Bad pivoting is found during DC analysis. Option dc_pivot_check=yes is recommended for possible improvement of convergence.
Notice from spectre at vout = 1.6 during DC analysis `sweep1-006_dc', during Sweep analysis `sweep1'.
    GminDC = 1 pS is large enough to noticeably affect the DC solution.
        dV(I17.M4.m1:int_d) = 21.9669 mV
        Use the `gmin_check' option to eliminate or expand this report.
    Bad pivoting is found during DC analysis. Option dc_pivot_check=yes is recommended for possible improvement of convergence.

    sweep1-006_dc: vout = 1.6            (4 %), step = 800e-03         (2 %)

Notice from spectre at vout = 2.4 during DC analysis `sweep1-006_dc', during Sweep analysis `sweep1'.
    GminDC = 1 pS is large enough to noticeably affect the DC solution.
        dV(I17.M4.m1:int_d) = 21.9669 mV
        Use the `gmin_check' option to eliminate or expand this report.
    Bad pivoting is found during DC analysis. Option dc_pivot_check=yes is recommended for possible improvement of convergence.

    sweep1-006_dc: vout = 2.4            (6 %), step = 800e-03         (2 %)

Notice from spectre at vout = 3.2 during DC analysis `sweep1-006_dc', during Sweep analysis `sweep1'.
    GminDC = 1 pS is large enough to noticeably affect the DC solution.
        Further occurrences of this notice will be suppressed.
        dV(I17.M4.m1:int_d) = 21.9669 mV
        Further occurrences of this notice will be suppressed.
        Use the `gmin_check' option to eliminate or expand this report.
        Further occurrences of this notice will be suppressed.
    Bad pivoting is found during DC analysis. Option dc_pivot_check=yes is recommended for possible improvement of convergence.
        Further occurrences of this notice will be suppressed.

    sweep1-006_dc: vout = 3.2            (8 %), step = 800e-03         (2 %)
    sweep1-006_dc: vout = 4             (10 %), step = 800e-03         (2 %)
    sweep1-006_dc: vout = 4.8           (12 %), step = 800e-03         (2 %)
    sweep1-006_dc: vout = 5.6           (14 %), step = 800e-03         (2 %)
    sweep1-006_dc: vout = 6.4           (16 %), step = 800e-03         (2 %)
    sweep1-006_dc: vout = 7.2           (18 %), step = 800e-03         (2 %)
    sweep1-006_dc: vout = 8             (20 %), step = 800e-03         (2 %)
    sweep1-006_dc: vout = 8.8           (22 %), step = 800e-03         (2 %)
    sweep1-006_dc: vout = 9.6           (24 %), step = 800e-03         (2 %)
    sweep1-006_dc: vout = 10.4          (26 %), step = 800e-03         (2 %)
    sweep1-006_dc: vout = 11.2          (28 %), step = 800e-03         (2 %)
    sweep1-006_dc: vout = 12            (30 %), step = 800e-03         (2 %)
    sweep1-006_dc: vout = 12.8          (32 %), step = 800e-03         (2 %)
    sweep1-006_dc: vout = 13.6          (34 %), step = 800e-03         (2 %)
    sweep1-006_dc: vout = 14.4          (36 %), step = 800e-03         (2 %)
    sweep1-006_dc: vout = 15.2          (38 %), step = 800e-03         (2 %)
    sweep1-006_dc: vout = 16            (40 %), step = 800e-03         (2 %)
    sweep1-006_dc: vout = 16.8          (42 %), step = 800e-03         (2 %)
    sweep1-006_dc: vout = 17.6          (44 %), step = 800e-03         (2 %)
    sweep1-006_dc: vout = 18.4          (46 %), step = 800e-03         (2 %)
    sweep1-006_dc: vout = 19.2          (48 %), step = 800e-03         (2 %)
    sweep1-006_dc: vout = 20            (50 %), step = 800e-03         (2 %)
    sweep1-006_dc: vout = 20.8          (52 %), step = 800e-03         (2 %)
    sweep1-006_dc: vout = 21.6          (54 %), step = 800e-03         (2 %)
    sweep1-006_dc: vout = 22.4          (56 %), step = 800e-03         (2 %)
    sweep1-006_dc: vout = 23.2          (58 %), step = 800e-03         (2 %)
    sweep1-006_dc: vout = 24            (60 %), step = 800e-03         (2 %)
    sweep1-006_dc: vout = 24.8          (62 %), step = 800e-03         (2 %)
    sweep1-006_dc: vout = 25.6          (64 %), step = 800e-03         (2 %)
    sweep1-006_dc: vout = 26.4          (66 %), step = 800e-03         (2 %)
    sweep1-006_dc: vout = 27.2          (68 %), step = 800e-03         (2 %)
    sweep1-006_dc: vout = 28            (70 %), step = 800e-03         (2 %)
    sweep1-006_dc: vout = 28.8          (72 %), step = 800e-03         (2 %)
    sweep1-006_dc: vout = 29.6          (74 %), step = 800e-03         (2 %)
    sweep1-006_dc: vout = 30.4          (76 %), step = 800e-03         (2 %)
    sweep1-006_dc: vout = 31.2          (78 %), step = 800e-03         (2 %)
    sweep1-006_dc: vout = 32            (80 %), step = 800e-03         (2 %)
    sweep1-006_dc: vout = 32.8          (82 %), step = 800e-03         (2 %)
    sweep1-006_dc: vout = 33.6          (84 %), step = 800e-03         (2 %)
    sweep1-006_dc: vout = 34.4          (86 %), step = 800e-03         (2 %)
    sweep1-006_dc: vout = 35.2          (88 %), step = 800e-03         (2 %)
    sweep1-006_dc: vout = 36            (90 %), step = 800e-03         (2 %)
    sweep1-006_dc: vout = 36.8          (92 %), step = 800e-03         (2 %)
    sweep1-006_dc: vout = 37.6          (94 %), step = 800e-03         (2 %)
    sweep1-006_dc: vout = 38.4          (96 %), step = 800e-03         (2 %)
    sweep1-006_dc: vout = 39.2          (98 %), step = 800e-03         (2 %)
    sweep1-006_dc: vout = 40           (100 %), step = 800e-03         (2 %)

Maximum value achieved for any signal of each quantity: 
V: V(net84) = 40 V
I: I(M0:1) = 30 mA
sweep1-006_dc: writing operating point information to rawfile.

Opening the PSF file ../psf/sweep1-006_dc.info ...
DC simulation time: CPU = 255.315 ms, elapsed = 259.936 ms.

Notice from spectre at vout = 40 during DC analysis `sweep1-006_dc', during Sweep analysis `sweep1'.
    The value of parameter 'vout' has been reset to the original value 20.

Total time required for dc analysis `sweep1-006_dc': CPU = 255.365 ms, elapsed = 259.984 ms.
Time accumulated: CPU = 3.58253 s, elapsed = 3.82406 s.
Peak resident memory used = 87.8 Mbytes.


Notice from spectre during Sweep analysis `sweep1'.
    92 notices suppressed.

sweep1-006_modelParameter: writing model parameter values to rawfile.

Opening the PSF file ../psf/sweep1-006_modelParameter.info ...
sweep1-006_element: writing instance parameter values to rawfile.

Opening the PSF file ../psf/sweep1-006_element.info ...
sweep1-006_outputParameter: writing output parameter values to rawfile.

Opening the PSF file ../psf/sweep1-006_outputParameter.info ...
sweep1-006_designParamVals: writing netlist parameters to rawfile.

Opening the PSFASCII file ../psf/sweep1-006_designParamVals.info ...
sweep1-006_primitives: writing primitives to rawfile.

Opening the PSFASCII file ../psf/sweep1-006_primitives.info.primitives ...
sweep1-006_subckts: writing subcircuits to rawfile.

Opening the PSFASCII file ../psf/sweep1-006_subckts.info.subckts ...
Total time required for sweep analysis `sweep1': CPU = 3.02551 s, elapsed = 3.27212 s.
Time accumulated: CPU = 3.6094 s, elapsed = 3.87171 s.
Peak resident memory used = 87.9 Mbytes.


Aggregate audit (4:34:51 PM, Tue May 4, 2021):
Time used: CPU = 3.63 s, elapsed = 3.89 s, util. = 93.2%.
Time spent in licensing: elapsed = 144 ms.
Peak memory used = 88.4 Mbytes.
Simulation started at: 4:34:47 PM, Tue May 4, 2021, ended at: 4:34:51 PM, Tue May 4, 2021, with elapsed time (wall clock): 3.89 s.
spectre completes with 0 errors, 2 warnings, and 100 notices.
