
Spectre (R) Circuit Simulator
Version 17.1.0.433.isr9 64bit -- 5 Nov 2018
Copyright (C) 1989-2018 Cadence Design Systems, Inc. All rights reserved worldwide. Cadence and Spectre are registered trademarks of Cadence Design Systems, Inc. All others are the property of their respective holders.

Includes RSA BSAFE(R) Cryptographic or Security Protocol Software from RSA Security, Inc.

User: ykhuang   Host: s2424   HostID: ED824314   PID: 2636
Memory  available: 52.1633 GB  physical: 67.2863 GB
Linux   : CentOS Linux release 7.9.2009 (Core)
CPU Type: Intel(R) Xeon(R) CPU E5-2630 v3 @ 2.40GHz
        Socket: Processors [Frequency] (Hyperthreaded Processor)
        0:       0 [1200.1] ( 16 ),  1 [1231.2] ( 17 ),  2 [1200.0] ( 18 )
                 3 [1200.0] ( 19 ),  4 [1200.0] ( 20 ),  5 [1204.8] ( 21 )
                 6 [1200.1] ( 22 ),  7 [1200.0] ( 23 )
        1:       8 [1200.0] ( 24 ),  9 [1232.2] ( 25 ), 10 [1253.3] ( 26 )
                11 [1200.3] ( 27 ), 12 [1200.0] ( 28 ), 13 [1200.0] ( 29 )
                14 [1200.0] ( 30 ), 15 [1200.0] ( 31 )
        
System load averages (1min, 5min, 15min) : 0.4 %, 0.3 %, 0.6 %
Hyperthreading is enabled


Simulating `/home/ykhuang/research/Sim/EMG_TestBench/TB_EMG_w_SwitchArray/adexl/results/data/Interactive.1/1/EMG_TestBench:TB_EMG_w_SwitchArray:1/netlist/.mapi//xcelium.d/AMSD/ams_spice_in/./.amsspice_pre.ckt' on s2424 at 6:05:05 PM, Fri Feb 19, 2021 (process id: 2636).
Current working directory: /home/ykhuang/research/Sim/EMG_TestBench/TB_EMG_w_SwitchArray/adexl/results/data/Interactive.1/1/EMG_TestBench:TB_EMG_w_SwitchArray:1/netlist
Environment variable:
    SPECTRE_DEFAULTS=
Command line:
    amsprimtool  \
        /home/ykhuang/research/Sim/EMG_TestBench/TB_EMG_w_SwitchArray/adexl/results/data/Interactive.1/1/EMG_TestBench:TB_EMG_w_SwitchArray:1/netlist/.mapi//xcelium.d/AMSD/ams_spice_in/./.amsspice_pre.ckt  \
        -noraw -va,amsspice_pre -ahdllibdir  \
        /home/ykhuang/research/Sim/EMG_TestBench/TB_EMG_w_SwitchArray/adexl/results/data/Interactive.1/1/EMG_TestBench:TB_EMG_w_SwitchArray:1/netlist/.mapi//xcelium.d/AMSD/ams_spice_in/ahdlSimDB  \
        =log  \
        /home/ykhuang/research/Sim/EMG_TestBench/TB_EMG_w_SwitchArray/adexl/results/data/Interactive.1/1/EMG_TestBench:TB_EMG_w_SwitchArray:1/netlist/.mapi//xcelium.d/AMSD/ams_spice_in/./.amsspice_pre.ckt.log  \
        -token  \
        0001AF26C83A239465DFBB2CC00A229E73C4B63DFD3B60CB2080E838B83335D47FDDA126F37837D471DEBA2AFC31339371C2EE158F281DBC3FF5B90CD706359564F2C536CB1915B652EF8C15C317398F43C79B2EF77B29D462D1A16AFE3D229E7C9FB766FA28349A639FE900FC2F35897EC4AA31A26E7ECA66D5CA3F9D590FAF5DF7B911EB27339375DEAF2F903717A455FD923EF90B339379C4A3669D6161D4698AB522F77624D479C3A062EC297F83799FB139A03D7E9F65DDA141A3103196549FB22EFB3C35A479D3A83DE53F31963F9EBB31C13F0F8B73D5ED2ABF3C709E7BC4AD61E82566DB2389A83DDEB8537F10B0A126F35737FB71DEA80F9E0E50FB24B0C4528E5D339A7CDFB374B06561CA648AA83DC30C50FB10B0C8120283BF44709F00008391

Loading /pkg/cadence/installs/XCELIUM1803/tools.lnx86/cmi/lib/64bit/5.0/libinfineon_sh.so ...
Loading /pkg/cadence/installs/XCELIUM1803/tools.lnx86/cmi/lib/64bit/5.0/libphilips_o_sh.so ...
Loading /pkg/cadence/installs/XCELIUM1803/tools.lnx86/cmi/lib/64bit/5.0/libphilips_sh.so ...
Loading /pkg/cadence/installs/XCELIUM1803/tools.lnx86/cmi/lib/64bit/5.0/libsparam_sh.so ...
Loading /pkg/cadence/installs/XCELIUM1803/tools.lnx86/cmi/lib/64bit/5.0/libstmodels_sh.so ...
Reading file:  /home/ykhuang/research/Sim/EMG_TestBench/TB_EMG_w_SwitchArray/adexl/results/data/Interactive.1/1/EMG_TestBench:TB_EMG_w_SwitchArray:1/netlist/.mapi/xcelium.d/AMSD/ams_spice_in/.amsspice_pre.ckt
Reading file:  /pkg/cadence/installs/XCELIUM1803/tools.lnx86/spectre/etc/configs/mapsubckt.cfg
Reading file:  /pkg/cadence/installs/XCELIUM1803/tools.lnx86/spectre/etc/configs/spectre.cfg
Time for NDB Parsing: CPU = 122.903 ms, elapsed = 204.657 ms.
Time accumulated: CPU = 178.192 ms, elapsed = 204.668 ms.
Peak resident memory used = 50.3 Mbytes.

