xrun(64): 18.03-s018: (c) Copyright 1995-2019 Cadence Design Systems, Inc.
file: /home/ykhuang/research/EMG_Model/Signal_Gen/verilogams/verilog.vams
	module EMG_Model.Signal_Gen:verilogams
		errors: 0, warnings: 0
file: /home/ykhuang/research/EMG_Model/DAC_EMG/verilogams/verilog.vams
xmvlog: *W,SPDUSD: Include directory /home/ykhuang/research/ given but not used.
	Total errors/warnings found outside modules and primitives:
		errors: 0, warnings: 1
xmvlog: Memory Usage - Current physical: 25.9M, Current virtual: 57.8M
xmvlog: CPU Usage - 0.0s system + 0.0s user = 0.0s total (0.1s, 87.3% cpu)

		Caching library 'EMG_TestBench' ....... Done
		Caching library 'worklib' ....... Done
		Caching library 'EMG_Model' ....... Done
	Elaborating the design hierarchy:
	Top level design units:
		TB_MultiChannel
		cds_globals
	Discipline resolution Pass...
	Doing auto-insertion of connection elements...
	Connect Rules applied are:
		ConnRules_18V_full_fast
	Building instance overlay tables: .................... Done
	Generating native compiled code:
		EMG_Model.Signal_Gen:verilogams <0x350c3cab>
			streams:   1, words:   589
	Building instance specific data structures.
	Loading native compiled code:     .................... Done
	Design hierarchy summary:
		                 Instances  Unique
		Modules:                93      30
		Primitives:              6       1
		Registers:             392     163
		Scalar wires:           54       -
		Expanded wires:         12       1
		Vectored wires:         26       -
		Always blocks:          93      62
		Initial blocks:         24      27
		Cont. assignments:      19      21
		Pseudo assignments:     10       5
		Interconnect:          122       -
		Simulation timescale:  1ps
	Writing initial simulation snapshot: EMG_TestBench.TB_MultiChannel:config
xmelab: Memory Usage - Final: 44.0M, Peak: 216.7M, Peak virtual: 301.4M
xmelab: CPU Usage - 0.1s system + 0.1s user = 0.3s total (0.3s, 95.8% cpu)
Loading snapshot EMG_TestBench.TB_MultiChannel:config .................... Done
Simulating in AMS-SIE mode...
	Starting analog simulation engine...
AMSD: Using spectre solver with arguments: -ahdllibdir xcelium.d/AMSD/ahdlSimDB ++aps.

Spectre (R) Circuit Simulator
Version 17.1.0.433.isr9 64bit -- 5 Nov 2018
Copyright (C) 1989-2018 Cadence Design Systems, Inc. All rights reserved
        worldwide. Cadence and Spectre are registered trademarks of Cadence
        Design Systems, Inc. All others are the property of their respective
        holders.

Includes RSA BSAFE(R) Cryptographic or Security Protocol Software from RSA
        Security, Inc.

User: ykhuang   Host: s2424   HostID: ED824314   PID: 17197
Memory  available: 51.8816 GB  physical: 67.2863 GB
Linux   : CentOS Linux release 7.9.2009 (Core)
CPU Type: Intel(R) Xeon(R) CPU E5-2630 v3 @ 2.40GHz
        Socket: Processors [Frequency] (Hyperthreaded Processor)
        0:       0 [1203.2] ( 16 ),  1 [1393.5] ( 17 ),  2 [1285.1] ( 18 )
                 3 [1297.3] ( 19 ),  4 [1200.0] ( 20 ),  5 [2396.6] ( 21 )
                 6 [1200.1] ( 22 ),  7 [1217.7] ( 23 )
        1:       8 [1200.1] ( 24 ),  9 [1223.0] ( 25 ), 10 [1213.8] ( 26 )
                11 [1862.4] ( 27 ), 12 [1200.0] ( 28 ), 13 [1490.5] ( 29 )
                14 [1200.0] ( 30 ), 15 [1200.0] ( 31 )
        
System load averages (1min, 5min, 15min) : 0.8 %, 0.6 %, 0.5 %
Hyperthreading is enabled
HPC is enabled


Analog Kernel using -ANALOGCONTROL  ./spiceModels.scs.

Reading file: 
        /home/ykhuang/research/Sim/TB_MultiChannel/ams/config/netlist/spiceModels.scs

Notice from spectre during circuit read-in.
    Configuration file used:
        `/pkg/cadence/installs/XCELIUM1803/tools.lnx86/spectre/etc/configs/ams.cfg'.

Reading file: 
        /home/ykhuang/research/EMG_Model/DAC_EMG/verilogams/verilog.vams
Reading file: 
        /home/ykhuang/research/Sim/TB_MultiChannel/ams/config/netlist/xcelium.d/AMSD/ahdlSimDB/1483_research_EMG_Model_DAC_EMG_verilogams_verilog.vams.EMG_Model__DAC_EMG__verilogams__0x10000001_behavioral.ahdlcmi/Linux-64/obj/optimize/5.0/libahdlcmi_EMG_Model__DAC_EMG__verilogams__0x10000001_behavioral.so
Installed compiled interface for
        EMG_Model__DAC_EMG__verilogams__0x10000001_behavioral.
Reading file: 
        /home/ykhuang/research/EMG_Model/Signal_Gen/verilogams/verilog.vams
Compiling ahdlcmi module library for
        EMG_Model__Signal_Gen__verilogams__0x10000001_behavioral.
Finished compilation in 994 ms (elapsed) for
        EMG_Model__Signal_Gen__verilogams__0x10000001_behavioral.
Installed compiled interface for
        EMG_Model__Signal_Gen__verilogams__0x10000001_behavioral.
Reading file: 
        /home/ykhuang/research/EMG_Model/BPF_EMG/verilogams/verilog.vams
Reading file: 
        /home/ykhuang/research/Sim/TB_MultiChannel/ams/config/netlist/xcelium.d/AMSD/ahdlSimDB/1483_research_EMG_Model_BPF_EMG_verilogams_verilog.vams.EMG_Model__BPF_EMG__verilogams__0x10000001_behavioral.ahdlcmi/Linux-64/obj/optimize/5.0/libahdlcmi_EMG_Model__BPF_EMG__verilogams__0x10000001_behavioral.so
Installed compiled interface for
        EMG_Model__BPF_EMG__verilogams__0x10000001_behavioral.
Reading file: 
        /home/ykhuang/research/EMG_Model/PGA_EMG/verilogams/verilog.vams
Reading file: 
        /home/ykhuang/research/Sim/TB_MultiChannel/ams/config/netlist/xcelium.d/AMSD/ahdlSimDB/1483_research_EMG_Model_PGA_EMG_verilogams_verilog.vams.EMG_Model__PGA_EMG__verilogams__0x10000001_behavioral.ahdlcmi/Linux-64/obj/optimize/5.0/libahdlcmi_EMG_Model__PGA_EMG__verilogams__0x10000001_behavioral.so
Installed compiled interface for
        EMG_Model__PGA_EMG__verilogams__0x10000001_behavioral.
Reading file: 
        /home/ykhuang/research/EMG_Model/IA_EMG_Ideal/verilogams/verilog.vams
Reading file: 
        /home/ykhuang/research/Sim/TB_MultiChannel/ams/config/netlist/xcelium.d/AMSD/ahdlSimDB/1483_research_EMG_Model_IA_EMG_Ideal_verilogams_verilog.vams.EMG_Model__IA_EMG_Ideal__verilogams__0x10000001_behavioral.ahdlcmi/Linux-64/obj/optimize/5.0/libahdlcmi_EMG_Model__IA_EMG_Ideal__verilogams__0x10000001_behavioral.so
Installed compiled interface for
        EMG_Model__IA_EMG_Ideal__verilogams__0x10000001_behavioral.
Reading file: 
        /home/ykhuang/research/Sim/TB_MultiChannel/ams/config/netlist/netlist.vams
Reading file: 
        /home/ykhuang/research/EMG_Model/ANA_MUX_EMG/verilogams/verilog.vams
Reading file: 
        /home/ykhuang/research/Sim/TB_MultiChannel/ams/config/netlist/xcelium.d/AMSD/ahdlSimDB/1483_research_EMG_Model_ANA_MUX_EMG_verilogams_verilog.vams.EMG_Model__ANA_MUX_EMG__verilogams__0x10000001_behavioral.ahdlcmi/Linux-64/obj/optimize/5.0/libahdlcmi_EMG_Model__ANA_MUX_EMG__verilogams__0x10000001_behavioral.so
Installed compiled interface for
        EMG_Model__ANA_MUX_EMG__verilogams__0x10000001_behavioral.
Reading file: 
        /home/ykhuang/research/EMG_Model/ADC_EMG/verilogams/verilog.vams
Reading link:  /pkg/cadence/installs/XCELIUM1803/tools
Reading file: 
        /pkg/cadence/installs/XCELIUM1803/tools.lnx86/affirma_ams/etc/connect_lib/Bidir_2.vams
Reading file: 
        /home/ykhuang/research/Sim/TB_MultiChannel/ams/config/netlist/xcelium.d/AMSD/ahdlSimDB/3151_tools_affirma_ams_etc_connect_lib_Bidir_2.vams.connectLib__Bidir_2__module__0x10000001_behavioral.ahdlcmi/Linux-64/obj/optimize/5.0/libahdlcmi_connectLib__Bidir_2__module__0x10000001_behavioral.so
Installed compiled interface for
        connectLib__Bidir_2__module__0x10000001_behavioral.
Reading file: 
        /pkg/cadence/installs/XCELIUM1803/tools.lnx86/affirma_ams/etc/connect_lib/E2R.vams
Reading file: 
        /home/ykhuang/research/Sim/TB_MultiChannel/ams/config/netlist/xcelium.d/AMSD/ahdlSimDB/3151_tools_affirma_ams_etc_connect_lib_E2R.vams.connectLib__E2R__module__0x10000001_behavioral.ahdlcmi/Linux-64/obj/optimize/5.0/libahdlcmi_connectLib__E2R__module__0x10000001_behavioral.so
Installed compiled interface for
        connectLib__E2R__module__0x10000001_behavioral.
Reading file: 
        /pkg/cadence/installs/XCELIUM1803/tools.lnx86/affirma_ams/etc/connect_lib/L2E_2.vams
Reading file: 
        /home/ykhuang/research/Sim/TB_MultiChannel/ams/config/netlist/xcelium.d/AMSD/ahdlSimDB/3151_tools_affirma_ams_etc_connect_lib_L2E_2.vams.connectLib__L2E_2__module__0x10000001_behavioral.ahdlcmi/Linux-64/obj/optimize/5.0/libahdlcmi_connectLib__L2E_2__module__0x10000001_behavioral.so
Installed compiled interface for
        connectLib__L2E_2__module__0x10000001_behavioral.
Reading file: 
        /pkg/cadence/installs/XCELIUM1803/tools.lnx86/affirma_ams/etc/connect_lib/E2L_2.vams
Reading file: 
        /home/ykhuang/research/Sim/TB_MultiChannel/ams/config/netlist/xcelium.d/AMSD/ahdlSimDB/3151_tools_affirma_ams_etc_connect_lib_E2L_2.vams.connectLib__E2L_2__module__0x10000001_behavioral.ahdlcmi/Linux-64/obj/optimize/5.0/libahdlcmi_connectLib__E2L_2__module__0x10000001_behavioral.so
Installed compiled interface for
        connectLib__E2L_2__module__0x10000001_behavioral.
Reading file: 
        /pkg/cadence/installs/XCELIUM1803/tools.lnx86/spectre/etc/configs/mapsubckt.cfg
Reading file: 
        /pkg/cadence/installs/XCELIUM1803/tools.lnx86/spectre/etc/configs/spectre.cfg
Reading file: 
        /pkg/xfab/XKIT/xh018/cadence/v8_0/spectre/v8_0_1/lpmos/config.scs
Reading file: 
        /pkg/xfab/XKIT/xh018/cadence/v8_0/spectre/v8_0_1/lpmos/param.scs
Reading file:  /pkg/xfab/XKIT/xh018/cadence/v8_0/spectre/v8_0_1/lpmos/bip.scs
Reading file: 
        /pkg/xfab/XKIT/xh018/cadence/v8_0/spectre/v8_0_1/lpmos/models/bip/tm_bip.scs
Reading file: 
        /pkg/xfab/XKIT/xh018/cadence/v8_0/spectre/v8_0_1/lpmos/models/bip/qpva.scs
Reading file: 
        /pkg/xfab/XKIT/xh018/cadence/v8_0/spectre/v8_0_1/lpmos/models/bip/qpvb.scs
Reading file: 
        /pkg/xfab/XKIT/xh018/cadence/v8_0/spectre/v8_0_1/lpmos/models/bip/qpvc.scs
Reading file: 
        /pkg/xfab/XKIT/xh018/cadence/v8_0/spectre/v8_0_1/lpmos/models/bip/qpva3.scs
Reading file: 
        /pkg/xfab/XKIT/xh018/cadence/v8_0/spectre/v8_0_1/lpmos/models/bip/qpvb3.scs
Reading file: 
        /pkg/xfab/XKIT/xh018/cadence/v8_0/spectre/v8_0_1/lpmos/models/bip/qpvc3.scs
Reading file: 
        /pkg/xfab/XKIT/xh018/cadence/v8_0/spectre/v8_0_1/lpmos/models/bip/qnva.scs
Reading file: 
        /pkg/xfab/XKIT/xh018/cadence/v8_0/spectre/v8_0_1/lpmos/models/bip/qnvb.scs
Reading file: 
        /pkg/xfab/XKIT/xh018/cadence/v8_0/spectre/v8_0_1/lpmos/models/bip/qnvb_npn.scs
Reading file: 
        /pkg/xfab/XKIT/xh018/cadence/v8_0/spectre/v8_0_1/lpmos/models/bip/qnvb_pnp.scs
Reading file: 
        /pkg/xfab/XKIT/xh018/cadence/v8_0/spectre/v8_0_1/lpmos/models/bip/qnvc.scs
Reading file: 
        /pkg/xfab/XKIT/xh018/cadence/v8_0/spectre/v8_0_1/lpmos/models/bip/qnvc_npn.scs
Reading file: 
        /pkg/xfab/XKIT/xh018/cadence/v8_0/spectre/v8_0_1/lpmos/models/bip/qnvc_pnp.scs
Reading file: 
        /pkg/xfab/XKIT/xh018/cadence/v8_0/spectre/v8_0_1/lpmos/models/bip/qpvhscr.scs
Reading file: 
        /pkg/xfab/XKIT/xh018/cadence/v8_0/spectre/v8_0_1/lpmos/models/bip/qpvascr.scs
Reading file: 
        /pkg/xfab/XKIT/xh018/cadence/v8_0/spectre/v8_0_1/lpmos/models/bip/qpvhbscr.scs
Reading file: 
        /pkg/xfab/XKIT/xh018/cadence/v8_0/spectre/v8_0_1/lpmos/models/bip/qpv_pa.scs
Reading file: 
        /pkg/xfab/XKIT/xh018/cadence/v8_0/spectre/v8_0_1/lpmos/models/bip/qpv_pb.scs
Reading file: 
        /pkg/xfab/XKIT/xh018/cadence/v8_0/spectre/v8_0_1/lpmos/models/bip/qpv_pc.scs
Reading file: 
        /pkg/xfab/XKIT/xh018/cadence/v8_0/spectre/v8_0_1/lpmos/models/bip/qpv_pd.scs
Reading file: 
        /pkg/xfab/XKIT/xh018/cadence/v8_0/spectre/v8_0_1/lpmos/models/bip/qpv_pe.scs
Reading file: 
        /pkg/xfab/XKIT/xh018/cadence/v8_0/spectre/v8_0_1/lpmos/models/bip/qpv_pf.scs
Reading file: 
        /pkg/xfab/XKIT/xh018/cadence/v8_0/spectre/v8_0_1/lpmos/models/bip/qpl_pa.scs
Reading file: 
        /pkg/xfab/XKIT/xh018/cadence/v8_0/spectre/v8_0_1/lpmos/models/bip/qpl_pb.scs
Reading file: 
        /pkg/xfab/XKIT/xh018/cadence/v8_0/spectre/v8_0_1/lpmos/models/bip/qpl_pc.scs
Reading file: 
        /pkg/xfab/XKIT/xh018/cadence/v8_0/spectre/v8_0_1/lpmos/models/bip/qpl_pd.scs
Reading file: 
        /pkg/xfab/XKIT/xh018/cadence/v8_0/spectre/v8_0_1/lpmos/models/bip/qpl_pe.scs
Reading file: 
        /pkg/xfab/XKIT/xh018/cadence/v8_0/spectre/v8_0_1/lpmos/models/bip/qpl_pf.scs
Reading file: 
        /pkg/xfab/XKIT/xh018/cadence/v8_0/spectre/v8_0_1/lpmos/models/bip/qnl_pa.scs
Reading file: 
        /pkg/xfab/XKIT/xh018/cadence/v8_0/spectre/v8_0_1/lpmos/models/bip/qnl_pb.scs
Reading file: 
        /pkg/xfab/XKIT/xh018/cadence/v8_0/spectre/v8_0_1/lpmos/models/bip/qnl_pc.scs
Reading file: 
        /pkg/xfab/XKIT/xh018/cadence/v8_0/spectre/v8_0_1/lpmos/models/bip/qnl_pd.scs
Reading file: 
        /pkg/xfab/XKIT/xh018/cadence/v8_0/spectre/v8_0_1/lpmos/models/bip/qnl_pe.scs
Reading file: 
        /pkg/xfab/XKIT/xh018/cadence/v8_0/spectre/v8_0_1/lpmos/models/bip/qnl_pf.scs
Reading file:  /pkg/xfab/XKIT/xh018/cadence/v8_0/spectre/v8_0_1/lpmos/cap.scs
Reading file: 
        /pkg/xfab/XKIT/xh018/cadence/v8_0/spectre/v8_0_1/lpmos/models/cap/tm_cap.scs
Reading file: 
        /pkg/xfab/XKIT/xh018/cadence/v8_0/spectre/v8_0_1/lpmos/models/cap/csandwt3.scs
Reading file: 
        /pkg/xfab/XKIT/xh018/cadence/v8_0/spectre/v8_0_1/lpmos/models/cap/csandwt4.scs
Reading file: 
        /pkg/xfab/XKIT/xh018/cadence/v8_0/spectre/v8_0_1/lpmos/models/cap/csandwt5.scs
Reading file: 
        /pkg/xfab/XKIT/xh018/cadence/v8_0/spectre/v8_0_1/lpmos/models/cap/csf2p.scs
Reading file: 
        /pkg/xfab/XKIT/xh018/cadence/v8_0/spectre/v8_0_1/lpmos/models/cap/csf3p.scs
Reading file: 
        /pkg/xfab/XKIT/xh018/cadence/v8_0/spectre/v8_0_1/lpmos/models/cap/csf3.scs
Reading file: 
        /pkg/xfab/XKIT/xh018/cadence/v8_0/spectre/v8_0_1/lpmos/models/cap/csf4.scs
Reading file: 
        /pkg/xfab/XKIT/xh018/cadence/v8_0/spectre/v8_0_1/lpmos/models/cap/csf5.scs
Reading file: 
        /pkg/xfab/XKIT/xh018/cadence/v8_0/spectre/v8_0_1/lpmos/models/cap/csft4.scs
Reading file: 
        /pkg/xfab/XKIT/xh018/cadence/v8_0/spectre/v8_0_1/lpmos/models/cap/csft5.scs
Reading file: 
        /pkg/xfab/XKIT/xh018/cadence/v8_0/spectre/v8_0_1/lpmos/models/cap/csft6.scs
Reading file: 
        /pkg/xfab/XKIT/xh018/cadence/v8_0/spectre/v8_0_1/lpmos/models/cap/csf3a.scs
Reading file: 
        /pkg/xfab/XKIT/xh018/cadence/v8_0/spectre/v8_0_1/lpmos/models/cap/csf4a.scs
Reading file: 
        /pkg/xfab/XKIT/xh018/cadence/v8_0/spectre/v8_0_1/lpmos/models/cap/csf5a.scs
Reading file: 
        /pkg/xfab/XKIT/xh018/cadence/v8_0/spectre/v8_0_1/lpmos/models/cap/csft4a.scs
Reading file: 
        /pkg/xfab/XKIT/xh018/cadence/v8_0/spectre/v8_0_1/lpmos/models/cap/csft5a.scs
Reading file: 
        /pkg/xfab/XKIT/xh018/cadence/v8_0/spectre/v8_0_1/lpmos/models/cap/csft6a.scs
Reading file: 
        /pkg/xfab/XKIT/xh018/cadence/v8_0/spectre/v8_0_1/lpmos/models/cap/cmm3.scs
Reading file: 
        /pkg/xfab/XKIT/xh018/cadence/v8_0/spectre/v8_0_1/lpmos/models/cap/cmm4t.scs
Reading file: 
        /pkg/xfab/XKIT/xh018/cadence/v8_0/spectre/v8_0_1/lpmos/models/cap/cmm4.scs
Reading file: 
        /pkg/xfab/XKIT/xh018/cadence/v8_0/spectre/v8_0_1/lpmos/models/cap/cmm5t.scs
Reading file: 
        /pkg/xfab/XKIT/xh018/cadence/v8_0/spectre/v8_0_1/lpmos/models/cap/cmm6t.scs
Reading file: 
        /pkg/xfab/XKIT/xh018/cadence/v8_0/spectre/v8_0_1/lpmos/models/cap/cdmm4.scs
Reading file: 
        /pkg/xfab/XKIT/xh018/cadence/v8_0/spectre/v8_0_1/lpmos/models/cap/cdmm4t.scs
Reading file: 
        /pkg/xfab/XKIT/xh018/cadence/v8_0/spectre/v8_0_1/lpmos/models/cap/ctmm5.scs
Reading file: 
        /pkg/xfab/XKIT/xh018/cadence/v8_0/spectre/v8_0_1/lpmos/models/cap/ctmm5t.scs
Reading file: 
        /pkg/xfab/XKIT/xh018/cadence/v8_0/spectre/v8_0_1/lpmos/models/cap/cmmh3.scs
Reading file: 
        /pkg/xfab/XKIT/xh018/cadence/v8_0/spectre/v8_0_1/lpmos/models/cap/cmmh4t.scs
Reading file: 
        /pkg/xfab/XKIT/xh018/cadence/v8_0/spectre/v8_0_1/lpmos/models/cap/cmmh4.scs
Reading file: 
        /pkg/xfab/XKIT/xh018/cadence/v8_0/spectre/v8_0_1/lpmos/models/cap/cmmh5t.scs
Reading file: 
        /pkg/xfab/XKIT/xh018/cadence/v8_0/spectre/v8_0_1/lpmos/models/cap/cmmh6t.scs
Reading file: 
        /pkg/xfab/XKIT/xh018/cadence/v8_0/spectre/v8_0_1/lpmos/models/cap/cdmmh4.scs
Reading file: 
        /pkg/xfab/XKIT/xh018/cadence/v8_0/spectre/v8_0_1/lpmos/models/cap/cdmmh4t.scs
Reading file: 
        /pkg/xfab/XKIT/xh018/cadence/v8_0/spectre/v8_0_1/lpmos/models/cap/ctmmh5.scs
Reading file: 
        /pkg/xfab/XKIT/xh018/cadence/v8_0/spectre/v8_0_1/lpmos/models/cap/ctmmh5t.scs
Reading file: 
        /pkg/xfab/XKIT/xh018/cadence/v8_0/spectre/v8_0_1/lpmos/models/cap/mosvc.scs
Reading file: 
        /pkg/xfab/XKIT/xh018/cadence/v8_0/spectre/v8_0_1/lpmos/models/cap/mosvc_pmos.scs
Reading file: 
        /pkg/xfab/XKIT/xh018/cadence/v8_0/spectre/v8_0_1/lpmos/models/cap/mosvci.scs
Reading file: 
        /pkg/xfab/XKIT/xh018/cadence/v8_0/spectre/v8_0_1/lpmos/models/cap/mosvci_nmos.scs
Reading file: 
        /pkg/xfab/XKIT/xh018/cadence/v8_0/spectre/v8_0_1/lpmos/models/cap/mosvci_m.scs
Reading file: 
        /pkg/xfab/XKIT/xh018/cadence/v8_0/spectre/v8_0_1/lpmos/models/cap/mosvc3.scs
Reading file: 
        /pkg/xfab/XKIT/xh018/cadence/v8_0/spectre/v8_0_1/lpmos/models/cap/mosvc3_pmos.scs
Reading file: 
        /pkg/xfab/XKIT/xh018/cadence/v8_0/spectre/v8_0_1/lpmos/models/cap/mosvc3i.scs
Reading file: 
        /pkg/xfab/XKIT/xh018/cadence/v8_0/spectre/v8_0_1/lpmos/models/cap/mosvc3i_nmos.scs
Reading file: 
        /pkg/xfab/XKIT/xh018/cadence/v8_0/spectre/v8_0_1/lpmos/models/cap/mosvc3i_m.scs
Reading file: 
        /pkg/xfab/XKIT/xh018/cadence/v8_0/spectre/v8_0_1/lpmos/models/cap/cpod.scs
Reading file: 
        /pkg/xfab/XKIT/xh018/cadence/v8_0/spectre/v8_0_1/lpmos/models/cap/cpod_i.scs
Reading file: 
        /pkg/xfab/XKIT/xh018/cadence/v8_0/spectre/v8_0_1/lpmos/models/cap/cpodhv.scs
Reading file: 
        /pkg/xfab/XKIT/xh018/cadence/v8_0/spectre/v8_0_1/lpmos/models/cap/cpodhv_i.scs
Reading file: 
        /pkg/xfab/XKIT/xh018/cadence/v8_0/spectre/v8_0_1/lpmos/models/cap/cp1sub.scs
Reading file: 
        /pkg/xfab/XKIT/xh018/cadence/v8_0/spectre/v8_0_1/lpmos/models/cap/cp1suba.scs
Reading file: 
        /pkg/xfab/XKIT/xh018/cadence/v8_0/spectre/v8_0_1/lpmos/models/cap/cp1subp.scs
Reading file: 
        /pkg/xfab/XKIT/xh018/cadence/v8_0/spectre/v8_0_1/lpmos/models/cap/tag_25v.scs
Reading file: 
        /pkg/xfab/XKIT/xh018/cadence/v8_0/spectre/v8_0_1/lpmos/models/cap/tag_60v.scs
Reading file:  /pkg/xfab/XKIT/xh018/cadence/v8_0/spectre/v8_0_1/lpmos/dio.scs
Reading file: 
        /pkg/xfab/XKIT/xh018/cadence/v8_0/spectre/v8_0_1/lpmos/models/dio/tm_dio.scs
Reading file: 
        /pkg/xfab/XKIT/xh018/cadence/v8_0/spectre/v8_0_1/lpmos/models/dio/dn.scs
Reading file: 
        /pkg/xfab/XKIT/xh018/cadence/v8_0/spectre/v8_0_1/lpmos/models/dio/dp.scs
Reading file: 
        /pkg/xfab/XKIT/xh018/cadence/v8_0/spectre/v8_0_1/lpmos/models/dio/dnw.scs
Reading file: 
        /pkg/xfab/XKIT/xh018/cadence/v8_0/spectre/v8_0_1/lpmos/models/dio/dn3.scs
Reading file: 
        /pkg/xfab/XKIT/xh018/cadence/v8_0/spectre/v8_0_1/lpmos/models/dio/dnn3.scs
Reading file: 
        /pkg/xfab/XKIT/xh018/cadence/v8_0/spectre/v8_0_1/lpmos/models/dio/dp3.scs
Reading file: 
        /pkg/xfab/XKIT/xh018/cadence/v8_0/spectre/v8_0_1/lpmos/models/dio/dnw3.scs
Reading file: 
        /pkg/xfab/XKIT/xh018/cadence/v8_0/spectre/v8_0_1/lpmos/models/dio/ddnwmv.scs
Reading file: 
        /pkg/xfab/XKIT/xh018/cadence/v8_0/spectre/v8_0_1/lpmos/models/dio/dpdnwmv.scs
Reading file: 
        /pkg/xfab/XKIT/xh018/cadence/v8_0/spectre/v8_0_1/lpmos/models/dio/dipdnwmv.scs
Reading file: 
        /pkg/xfab/XKIT/xh018/cadence/v8_0/spectre/v8_0_1/lpmos/models/dio/ddnw.scs
Reading file: 
        /pkg/xfab/XKIT/xh018/cadence/v8_0/spectre/v8_0_1/lpmos/models/dio/dpdnw.scs
Reading file: 
        /pkg/xfab/XKIT/xh018/cadence/v8_0/spectre/v8_0_1/lpmos/models/dio/dipdnw.scs
Reading file: 
        /pkg/xfab/XKIT/xh018/cadence/v8_0/spectre/v8_0_1/lpmos/models/dio/dnhpw.scs
Reading file: 
        /pkg/xfab/XKIT/xh018/cadence/v8_0/spectre/v8_0_1/lpmos/models/dio/dnhpwa.scs
Reading file: 
        /pkg/xfab/XKIT/xh018/cadence/v8_0/spectre/v8_0_1/lpmos/models/dio/dphnw.scs
Reading file: 
        /pkg/xfab/XKIT/xh018/cadence/v8_0/spectre/v8_0_1/lpmos/models/dio/dphnwa.scs
Reading file: 
        /pkg/xfab/XKIT/xh018/cadence/v8_0/spectre/v8_0_1/lpmos/models/dio/dhpw.scs
Reading file: 
        /pkg/xfab/XKIT/xh018/cadence/v8_0/spectre/v8_0_1/lpmos/models/dio/dhnw.scs
Reading file: 
        /pkg/xfab/XKIT/xh018/cadence/v8_0/spectre/v8_0_1/lpmos/models/dio/dndf.scs
Reading file: 
        /pkg/xfab/XKIT/xh018/cadence/v8_0/spectre/v8_0_1/lpmos/models/dio/dpdwhn.scs
Reading file: 
        /pkg/xfab/XKIT/xh018/cadence/v8_0/spectre/v8_0_1/lpmos/models/dio/dwhn.scs
Reading file: 
        /pkg/xfab/XKIT/xh018/cadence/v8_0/spectre/v8_0_1/lpmos/models/dio/dpwhn.scs
Reading file: 
        /pkg/xfab/XKIT/xh018/cadence/v8_0/spectre/v8_0_1/lpmos/models/dio/dpndf.scs
Reading file: 
        /pkg/xfab/XKIT/xh018/cadence/v8_0/spectre/v8_0_1/lpmos/models/dio/dpdddnw.scs
Reading file: 
        /pkg/xfab/XKIT/xh018/cadence/v8_0/spectre/v8_0_1/lpmos/models/dio/ddpldnw.scs
Reading file: 
        /pkg/xfab/XKIT/xh018/cadence/v8_0/spectre/v8_0_1/lpmos/models/dio/dn3dpl.scs
Reading file: 
        /pkg/xfab/XKIT/xh018/cadence/v8_0/spectre/v8_0_1/lpmos/models/dio/dbn.scs
Reading file: 
        /pkg/xfab/XKIT/xh018/cadence/v8_0/spectre/v8_0_1/lpmos/models/dio/dpol.scs
Reading file: 
        /pkg/xfab/XKIT/xh018/cadence/v8_0/spectre/v8_0_1/lpmos/models/dio/dnpdd_scr.scs
Reading file: 
        /pkg/xfab/XKIT/xh018/cadence/v8_0/spectre/v8_0_1/lpmos/models/dio/dpdd_scr.scs
Reading file: 
        /pkg/xfab/XKIT/xh018/cadence/v8_0/spectre/v8_0_1/lpmos/models/dio/dsb.scs
Reading file: 
        /pkg/xfab/XKIT/xh018/cadence/v8_0/spectre/v8_0_1/lpmos/models/dio/dsba.scs
Reading file: 
        /pkg/xfab/XKIT/xh018/cadence/v8_0/spectre/v8_0_1/lpmos/models/dio/dsba_qp1.scs
Reading file: 
        /pkg/xfab/XKIT/xh018/cadence/v8_0/spectre/v8_0_1/lpmos/models/dio/dnp20.scs
Reading file: 
        /pkg/xfab/XKIT/xh018/cadence/v8_0/spectre/v8_0_1/lpmos/models/dio/dpp20.scs
Reading file: 
        /pkg/xfab/XKIT/xh018/cadence/v8_0/spectre/v8_0_1/lpmos/models/dio/dn3sci.scs
Reading file: 
        /pkg/xfab/XKIT/xh018/cadence/v8_0/spectre/v8_0_1/lpmos/models/dio/dscidnwmv.scs
Reading file:  /pkg/xfab/XKIT/xh018/cadence/v8_0/spectre/v8_0_1/lpmos/mos.scs
Reading file: 
        /pkg/xfab/XKIT/xh018/cadence/v8_0/spectre/v8_0_1/lpmos/models/mos/tm_mos.scs
Reading file: 
        /pkg/xfab/XKIT/xh018/cadence/v8_0/spectre/v8_0_1/lpmos/models/mos/ne.scs
Reading file: 
        /pkg/xfab/XKIT/xh018/cadence/v8_0/spectre/v8_0_1/lpmos/models/mos/nei.scs
Reading file: 
        /pkg/xfab/XKIT/xh018/cadence/v8_0/spectre/v8_0_1/lpmos/models/mos/nei_6.scs
Reading file: 
        /pkg/xfab/XKIT/xh018/cadence/v8_0/spectre/v8_0_1/lpmos/models/mos/nei_m_6.scs
Reading file: 
        /pkg/xfab/XKIT/xh018/cadence/v8_0/spectre/v8_0_1/lpmos/models/mos/pe.scs
Reading file: 
        /pkg/xfab/XKIT/xh018/cadence/v8_0/spectre/v8_0_1/lpmos/models/mos/pe_5.scs
Reading file: 
        /pkg/xfab/XKIT/xh018/cadence/v8_0/spectre/v8_0_1/lpmos/models/mos/pei.scs
Reading file: 
        /pkg/xfab/XKIT/xh018/cadence/v8_0/spectre/v8_0_1/lpmos/models/mos/pei_5.scs
Reading file: 
        /pkg/xfab/XKIT/xh018/cadence/v8_0/spectre/v8_0_1/lpmos/models/mos/pei_m_5.scs
Reading file: 
        /pkg/xfab/XKIT/xh018/cadence/v8_0/spectre/v8_0_1/lpmos/models/mos/nel.scs
Reading file: 
        /pkg/xfab/XKIT/xh018/cadence/v8_0/spectre/v8_0_1/lpmos/models/mos/neli.scs
Reading file: 
        /pkg/xfab/XKIT/xh018/cadence/v8_0/spectre/v8_0_1/lpmos/models/mos/neli_6.scs
Reading file: 
        /pkg/xfab/XKIT/xh018/cadence/v8_0/spectre/v8_0_1/lpmos/models/mos/neli_m_6.scs
Reading file: 
        /pkg/xfab/XKIT/xh018/cadence/v8_0/spectre/v8_0_1/lpmos/models/mos/pel.scs
Reading file: 
        /pkg/xfab/XKIT/xh018/cadence/v8_0/spectre/v8_0_1/lpmos/models/mos/pel_5.scs
Reading file: 
        /pkg/xfab/XKIT/xh018/cadence/v8_0/spectre/v8_0_1/lpmos/models/mos/peli.scs
Reading file: 
        /pkg/xfab/XKIT/xh018/cadence/v8_0/spectre/v8_0_1/lpmos/models/mos/peli_5.scs
Reading file: 
        /pkg/xfab/XKIT/xh018/cadence/v8_0/spectre/v8_0_1/lpmos/models/mos/peli_m_5.scs
Reading file: 
        /pkg/xfab/XKIT/xh018/cadence/v8_0/spectre/v8_0_1/lpmos/models/mos/nn3.scs
Reading file: 
        /pkg/xfab/XKIT/xh018/cadence/v8_0/spectre/v8_0_1/lpmos/models/mos/ne3.scs
Reading file: 
        /pkg/xfab/XKIT/xh018/cadence/v8_0/spectre/v8_0_1/lpmos/models/mos/ne3i.scs
Reading file: 
        /pkg/xfab/XKIT/xh018/cadence/v8_0/spectre/v8_0_1/lpmos/models/mos/ne3i_6.scs
Reading file: 
        /pkg/xfab/XKIT/xh018/cadence/v8_0/spectre/v8_0_1/lpmos/models/mos/ne3i_m_6.scs
Reading file: 
        /pkg/xfab/XKIT/xh018/cadence/v8_0/spectre/v8_0_1/lpmos/models/mos/pe3.scs
Reading file: 
        /pkg/xfab/XKIT/xh018/cadence/v8_0/spectre/v8_0_1/lpmos/models/mos/pe3_5.scs
Reading file: 
        /pkg/xfab/XKIT/xh018/cadence/v8_0/spectre/v8_0_1/lpmos/models/mos/pe3i.scs
Reading file: 
        /pkg/xfab/XKIT/xh018/cadence/v8_0/spectre/v8_0_1/lpmos/models/mos/pe3i_5.scs
Reading file: 
        /pkg/xfab/XKIT/xh018/cadence/v8_0/spectre/v8_0_1/lpmos/models/mos/pe3i_m_5.scs
Reading file: 
        /pkg/xfab/XKIT/xh018/cadence/v8_0/spectre/v8_0_1/lpmos/models/mos/pe3ln.scs
Reading file: 
        /pkg/xfab/XKIT/xh018/cadence/v8_0/spectre/v8_0_1/lpmos/models/mos/pe3ln_5.scs
Reading file: 
        /pkg/xfab/XKIT/xh018/cadence/v8_0/spectre/v8_0_1/lpmos/models/mos/pe3lni.scs
Reading file: 
        /pkg/xfab/XKIT/xh018/cadence/v8_0/spectre/v8_0_1/lpmos/models/mos/pe3lni_5.scs
Reading file: 
        /pkg/xfab/XKIT/xh018/cadence/v8_0/spectre/v8_0_1/lpmos/models/mos/pe3lni_m_5.scs
Reading file: 
        /pkg/xfab/XKIT/xh018/cadence/v8_0/spectre/v8_0_1/lpmos/models/mos/nd3.scs
Reading file: 
        /pkg/xfab/XKIT/xh018/cadence/v8_0/spectre/v8_0_1/lpmos/models/mos/nd3_mos1.scs
Reading file: 
        /pkg/xfab/XKIT/xh018/cadence/v8_0/spectre/v8_0_1/lpmos/models/mos/nd3_mos2.scs
Reading file: 
        /pkg/xfab/XKIT/xh018/cadence/v8_0/spectre/v8_0_1/lpmos/models/mos/nd3i.scs
Reading file: 
        /pkg/xfab/XKIT/xh018/cadence/v8_0/spectre/v8_0_1/lpmos/models/mos/nd3i_mos1.scs
Reading file: 
        /pkg/xfab/XKIT/xh018/cadence/v8_0/spectre/v8_0_1/lpmos/models/mos/nd3i_mos2.scs
Reading file: 
        /pkg/xfab/XKIT/xh018/cadence/v8_0/spectre/v8_0_1/lpmos/models/mos/nd3i_6.scs
Reading file: 
        /pkg/xfab/XKIT/xh018/cadence/v8_0/spectre/v8_0_1/lpmos/models/mos/nd3i_m_6.scs
Reading file: 
        /pkg/xfab/XKIT/xh018/cadence/v8_0/spectre/v8_0_1/lpmos/models/mos/nelna.scs
Reading file: 
        /pkg/xfab/XKIT/xh018/cadence/v8_0/spectre/v8_0_1/lpmos/models/mos/nelnai.scs
Reading file: 
        /pkg/xfab/XKIT/xh018/cadence/v8_0/spectre/v8_0_1/lpmos/models/mos/nelnai_6.scs
Reading file: 
        /pkg/xfab/XKIT/xh018/cadence/v8_0/spectre/v8_0_1/lpmos/models/mos/nelnai_m_6.scs
Reading file: 
        /pkg/xfab/XKIT/xh018/cadence/v8_0/spectre/v8_0_1/lpmos/models/mos/ne3lna.scs
Reading file: 
        /pkg/xfab/XKIT/xh018/cadence/v8_0/spectre/v8_0_1/lpmos/models/mos/ne3lnai.scs
Reading file: 
        /pkg/xfab/XKIT/xh018/cadence/v8_0/spectre/v8_0_1/lpmos/models/mos/ne3lnai_6.scs
Reading file: 
        /pkg/xfab/XKIT/xh018/cadence/v8_0/spectre/v8_0_1/lpmos/models/mos/ne3lnai_m_6.scs
Reading file: 
        /pkg/xfab/XKIT/xh018/cadence/v8_0/spectre/v8_0_1/lpmos/models/mos/pe3lna.scs
Reading file: 
        /pkg/xfab/XKIT/xh018/cadence/v8_0/spectre/v8_0_1/lpmos/models/mos/pe3lna_5.scs
Reading file: 
        /pkg/xfab/XKIT/xh018/cadence/v8_0/spectre/v8_0_1/lpmos/models/mos/pe3lnai.scs
Reading file: 
        /pkg/xfab/XKIT/xh018/cadence/v8_0/spectre/v8_0_1/lpmos/models/mos/pe3lnai_5.scs
Reading file: 
        /pkg/xfab/XKIT/xh018/cadence/v8_0/spectre/v8_0_1/lpmos/models/mos/pe3lnai_m_5.scs
Reading file: 
        /pkg/xfab/XKIT/xh018/cadence/v8_0/spectre/v8_0_1/lpmos/models/mos/nmma.scs
Reading file: 
        /pkg/xfab/XKIT/xh018/cadence/v8_0/spectre/v8_0_1/lpmos/models/mos/jf_nmma.scs
Reading file: 
        /pkg/xfab/XKIT/xh018/cadence/v8_0/spectre/v8_0_1/lpmos/models/mos/nmma_bjt.scs
Reading file: 
        /pkg/xfab/XKIT/xh018/cadence/v8_0/spectre/v8_0_1/lpmos/models/mos/pmma.scs
Reading file: 
        /pkg/xfab/XKIT/xh018/cadence/v8_0/spectre/v8_0_1/lpmos/models/mos/jf_pmma.scs
Reading file: 
        /pkg/xfab/XKIT/xh018/cadence/v8_0/spectre/v8_0_1/lpmos/models/mos/pmma_bjt.scs
Reading file: 
        /pkg/xfab/XKIT/xh018/cadence/v8_0/spectre/v8_0_1/lpmos/models/mos/nedi.scs
Reading file: 
        /pkg/xfab/XKIT/xh018/cadence/v8_0/spectre/v8_0_1/lpmos/models/mos/nedi_bjt.scs
Reading file: 
        /pkg/xfab/XKIT/xh018/cadence/v8_0/spectre/v8_0_1/lpmos/models/mos/nedia.scs
Reading file: 
        /pkg/xfab/XKIT/xh018/cadence/v8_0/spectre/v8_0_1/lpmos/models/mos/nedia_bjt.scs
Reading file: 
        /pkg/xfab/XKIT/xh018/cadence/v8_0/spectre/v8_0_1/lpmos/models/mos/ped2.scs
Reading file: 
        /pkg/xfab/XKIT/xh018/cadence/v8_0/spectre/v8_0_1/lpmos/models/mos/ped2_bjt.scs
Reading file: 
        /pkg/xfab/XKIT/xh018/cadence/v8_0/spectre/v8_0_1/lpmos/models/mos/ped.scs
Reading file: 
        /pkg/xfab/XKIT/xh018/cadence/v8_0/spectre/v8_0_1/lpmos/models/mos/ped_bjt.scs
Reading file: 
        /pkg/xfab/XKIT/xh018/cadence/v8_0/spectre/v8_0_1/lpmos/models/mos/nhv.scs
Reading file: 
        /pkg/xfab/XKIT/xh018/cadence/v8_0/spectre/v8_0_1/lpmos/models/mos/nhv_mos2.scs
Reading file: 
        /pkg/xfab/XKIT/xh018/cadence/v8_0/spectre/v8_0_1/lpmos/models/mos/nhv_bjt.scs
Reading file: 
        /pkg/xfab/XKIT/xh018/cadence/v8_0/spectre/v8_0_1/lpmos/models/mos/nhhv.scs
Reading file: 
        /pkg/xfab/XKIT/xh018/cadence/v8_0/spectre/v8_0_1/lpmos/models/mos/nhhv_mos2.scs
Reading file: 
        /pkg/xfab/XKIT/xh018/cadence/v8_0/spectre/v8_0_1/lpmos/models/mos/nhhv_bjt.scs
Reading file: 
        /pkg/xfab/XKIT/xh018/cadence/v8_0/spectre/v8_0_1/lpmos/models/mos/nmmc.scs
Reading file: 
        /pkg/xfab/XKIT/xh018/cadence/v8_0/spectre/v8_0_1/lpmos/models/mos/nmmc_mos2.scs
Reading file: 
        /pkg/xfab/XKIT/xh018/cadence/v8_0/spectre/v8_0_1/lpmos/models/mos/nmmc_bjt.scs
Reading file: 
        /pkg/xfab/XKIT/xh018/cadence/v8_0/spectre/v8_0_1/lpmos/models/mos/nmmd.scs
Reading file: 
        /pkg/xfab/XKIT/xh018/cadence/v8_0/spectre/v8_0_1/lpmos/models/mos/nmmd_mos2.scs
Reading file: 
        /pkg/xfab/XKIT/xh018/cadence/v8_0/spectre/v8_0_1/lpmos/models/mos/nmmd_bjt.scs
Reading file: 
        /pkg/xfab/XKIT/xh018/cadence/v8_0/spectre/v8_0_1/lpmos/models/mos/nmc.scs
Reading file: 
        /pkg/xfab/XKIT/xh018/cadence/v8_0/spectre/v8_0_1/lpmos/models/mos/nmc_mos2.scs
Reading file: 
        /pkg/xfab/XKIT/xh018/cadence/v8_0/spectre/v8_0_1/lpmos/models/mos/nmc_bjt.scs
Reading file: 
        /pkg/xfab/XKIT/xh018/cadence/v8_0/spectre/v8_0_1/lpmos/models/mos/nma.scs
Reading file: 
        /pkg/xfab/XKIT/xh018/cadence/v8_0/spectre/v8_0_1/lpmos/models/mos/nma_bjt.scs
Reading file: 
        /pkg/xfab/XKIT/xh018/cadence/v8_0/spectre/v8_0_1/lpmos/models/mos/phv.scs
Reading file: 
        /pkg/xfab/XKIT/xh018/cadence/v8_0/spectre/v8_0_1/lpmos/models/mos/phv_mos2.scs
Reading file: 
        /pkg/xfab/XKIT/xh018/cadence/v8_0/spectre/v8_0_1/lpmos/models/mos/phv_bjt.scs
Reading file: 
        /pkg/xfab/XKIT/xh018/cadence/v8_0/spectre/v8_0_1/lpmos/models/mos/phhv.scs
Reading file: 
        /pkg/xfab/XKIT/xh018/cadence/v8_0/spectre/v8_0_1/lpmos/models/mos/phhv_mos2.scs
Reading file: 
        /pkg/xfab/XKIT/xh018/cadence/v8_0/spectre/v8_0_1/lpmos/models/mos/phhv_bjt.scs
Reading file: 
        /pkg/xfab/XKIT/xh018/cadence/v8_0/spectre/v8_0_1/lpmos/models/mos/pmc.scs
Reading file: 
        /pkg/xfab/XKIT/xh018/cadence/v8_0/spectre/v8_0_1/lpmos/models/mos/pmc_mos2.scs
Reading file: 
        /pkg/xfab/XKIT/xh018/cadence/v8_0/spectre/v8_0_1/lpmos/models/mos/pmc_bjt.scs
Reading file: 
        /pkg/xfab/XKIT/xh018/cadence/v8_0/spectre/v8_0_1/lpmos/models/mos/pmmc.scs
Reading file: 
        /pkg/xfab/XKIT/xh018/cadence/v8_0/spectre/v8_0_1/lpmos/models/mos/pmmc_mos2.scs
Reading file: 
        /pkg/xfab/XKIT/xh018/cadence/v8_0/spectre/v8_0_1/lpmos/models/mos/pmmc_bjt.scs
Reading file: 
        /pkg/xfab/XKIT/xh018/cadence/v8_0/spectre/v8_0_1/lpmos/models/mos/pma.scs
Reading file: 
        /pkg/xfab/XKIT/xh018/cadence/v8_0/spectre/v8_0_1/lpmos/models/mos/pma_bjt.scs
Reading file: 
        /pkg/xfab/XKIT/xh018/cadence/v8_0/spectre/v8_0_1/lpmos/models/mos/pmb.scs
Reading file: 
        /pkg/xfab/XKIT/xh018/cadence/v8_0/spectre/v8_0_1/lpmos/models/mos/nesvt.scs
Reading file: 
        /pkg/xfab/XKIT/xh018/cadence/v8_0/spectre/v8_0_1/lpmos/models/mos/nesvti.scs
Reading file: 
        /pkg/xfab/XKIT/xh018/cadence/v8_0/spectre/v8_0_1/lpmos/models/mos/nesvti_6.scs
Reading file: 
        /pkg/xfab/XKIT/xh018/cadence/v8_0/spectre/v8_0_1/lpmos/models/mos/nesvti_m_6.scs
Reading file: 
        /pkg/xfab/XKIT/xh018/cadence/v8_0/spectre/v8_0_1/lpmos/models/mos/pesvt.scs
Reading file: 
        /pkg/xfab/XKIT/xh018/cadence/v8_0/spectre/v8_0_1/lpmos/models/mos/pesvt_5.scs
Reading file: 
        /pkg/xfab/XKIT/xh018/cadence/v8_0/spectre/v8_0_1/lpmos/models/mos/pesvti.scs
Reading file: 
        /pkg/xfab/XKIT/xh018/cadence/v8_0/spectre/v8_0_1/lpmos/models/mos/pesvti_5.scs
Reading file: 
        /pkg/xfab/XKIT/xh018/cadence/v8_0/spectre/v8_0_1/lpmos/models/mos/pesvti_m_5.scs
Reading file: 
        /pkg/xfab/XKIT/xh018/cadence/v8_0/spectre/v8_0_1/lpmos/models/mos/nhvd.scs
Reading file: 
        /pkg/xfab/XKIT/xh018/cadence/v8_0/spectre/v8_0_1/lpmos/models/mos/nhvd_bjt.scs
Reading file: 
        /pkg/xfab/XKIT/xh018/cadence/v8_0/spectre/v8_0_1/lpmos/models/mos/nhhvd.scs
Reading file: 
        /pkg/xfab/XKIT/xh018/cadence/v8_0/spectre/v8_0_1/lpmos/models/mos/nhhvd_bjt.scs
Reading file: 
        /pkg/xfab/XKIT/xh018/cadence/v8_0/spectre/v8_0_1/lpmos/photo.scs
Reading file: 
        /pkg/xfab/XKIT/xh018/cadence/v8_0/spectre/v8_0_1/lpmos/models/photo/tm_pho.scs
Reading file: 
        /pkg/xfab/XKIT/xh018/cadence/v8_0/spectre/v8_0_1/lpmos/models/photo/dphoa.scs
Reading file: 
        /pkg/xfab/XKIT/xh018/cadence/v8_0/spectre/v8_0_1/lpmos/models/photo/dpho.va
Reading link: 
        /pkg/cadence/installs/XCELIUM1803/tools.lnx86/spectre/etc/ahdl/constants.h
Reading file: 
        /pkg/cadence/installs/XCELIUM1803/tools.lnx86/spectre/etc/ahdl/constants.vams
Reading link: 
        /pkg/cadence/installs/XCELIUM1803/tools.lnx86/spectre/etc/ahdl/discipline.h
Reading file: 
        /pkg/cadence/installs/XCELIUM1803/tools.lnx86/spectre/etc/ahdl/disciplines.vams
Reading file: 
        /pkg/xfab/XKIT/xh018/cadence/v8_0/spectre/v8_0_1/lpmos/models/photo/dphob.scs
Reading file: 
        /pkg/xfab/XKIT/xh018/cadence/v8_0/spectre/v8_0_1/lpmos/models/photo/dphoc.scs
Reading file: 
        /pkg/xfab/XKIT/xh018/cadence/v8_0/spectre/v8_0_1/lpmos/models/photo/iphoto_uv.va
Reading file: 
        /pkg/xfab/XKIT/xh018/cadence/v8_0/spectre/v8_0_1/lpmos/models/photo/dphoc_cat.scs
Reading file: 
        /pkg/xfab/XKIT/xh018/cadence/v8_0/spectre/v8_0_1/lpmos/models/photo/dphoc0.scs
Reading file: 
        /pkg/xfab/XKIT/xh018/cadence/v8_0/spectre/v8_0_1/lpmos/models/photo/dphoc0_cat.scs
Reading file: 
        /pkg/xfab/XKIT/xh018/cadence/v8_0/spectre/v8_0_1/lpmos/models/photo/dphocfp.scs
Reading file: 
        /pkg/xfab/XKIT/xh018/cadence/v8_0/spectre/v8_0_1/lpmos/models/photo/dphocfp_cat.scs
Reading file: 
        /pkg/xfab/XKIT/xh018/cadence/v8_0/spectre/v8_0_1/lpmos/models/photo/dphod.scs
Reading file: 
        /pkg/xfab/XKIT/xh018/cadence/v8_0/spectre/v8_0_1/lpmos/models/photo/dphod_an1.scs
Reading file: 
        /pkg/xfab/XKIT/xh018/cadence/v8_0/spectre/v8_0_1/lpmos/models/photo/dphod_an2.scs
Reading file: 
        /pkg/xfab/XKIT/xh018/cadence/v8_0/spectre/v8_0_1/lpmos/models/photo/dphod0.scs
Reading file: 
        /pkg/xfab/XKIT/xh018/cadence/v8_0/spectre/v8_0_1/lpmos/models/photo/dphod0_an1.scs
Reading file: 
        /pkg/xfab/XKIT/xh018/cadence/v8_0/spectre/v8_0_1/lpmos/models/photo/dphod0_an2.scs
Reading file: 
        /pkg/xfab/XKIT/xh018/cadence/v8_0/spectre/v8_0_1/lpmos/models/photo/dphodfp.scs
Reading file: 
        /pkg/xfab/XKIT/xh018/cadence/v8_0/spectre/v8_0_1/lpmos/models/photo/dphodfp_an1.scs
Reading file: 
        /pkg/xfab/XKIT/xh018/cadence/v8_0/spectre/v8_0_1/lpmos/models/photo/dphodfp_an2.scs
Reading file: 
        /pkg/xfab/XKIT/xh018/cadence/v8_0/spectre/v8_0_1/lpmos/models/photo/dspada.scs
Reading file: 
        /pkg/xfab/XKIT/xh018/cadence/v8_0/spectre/v8_0_1/lpmos/models/photo/ispad.va
Reading file: 
        /pkg/xfab/XKIT/xh018/cadence/v8_0/spectre/v8_0_1/lpmos/models/photo/dspada_cat.scs
Reading file: 
        /pkg/xfab/XKIT/xh018/cadence/v8_0/spectre/v8_0_1/lpmos/models/photo/dspada0.scs
Reading file: 
        /pkg/xfab/XKIT/xh018/cadence/v8_0/spectre/v8_0_1/lpmos/models/photo/dapda.scs
Reading file: 
        /pkg/xfab/XKIT/xh018/cadence/v8_0/spectre/v8_0_1/lpmos/models/photo/iphoto_apd.va
Reading file: 
        /pkg/xfab/XKIT/xh018/cadence/v8_0/spectre/v8_0_1/lpmos/models/photo/dapda_cat.scs
Reading file: 
        /pkg/xfab/XKIT/xh018/cadence/v8_0/spectre/v8_0_1/lpmos/models/photo/dapda0.scs
Reading file:  /pkg/xfab/XKIT/xh018/cadence/v8_0/spectre/v8_0_1/lpmos/res.scs
Reading file: 
        /pkg/xfab/XKIT/xh018/cadence/v8_0/spectre/v8_0_1/lpmos/models/res/tm_res.scs
Reading file: 
        /pkg/xfab/XKIT/xh018/cadence/v8_0/spectre/v8_0_1/lpmos/models/res/rdn.scs
Reading file: 
        /pkg/xfab/XKIT/xh018/cadence/v8_0/spectre/v8_0_1/lpmos/models/res/rdn_esd.scs
Reading file: 
        /pkg/xfab/XKIT/xh018/cadence/v8_0/spectre/v8_0_1/lpmos/models/res/rdp.scs
Reading file: 
        /pkg/xfab/XKIT/xh018/cadence/v8_0/spectre/v8_0_1/lpmos/models/res/rdp_io.scs
Reading file: 
        /pkg/xfab/XKIT/xh018/cadence/v8_0/spectre/v8_0_1/lpmos/models/res/rdp_esd.scs
Reading file: 
        /pkg/xfab/XKIT/xh018/cadence/v8_0/spectre/v8_0_1/lpmos/models/res/rnw.scs
Reading file: 
        /pkg/xfab/XKIT/xh018/cadence/v8_0/spectre/v8_0_1/lpmos/models/res/rnw_scr.scs
Reading file: 
        /pkg/xfab/XKIT/xh018/cadence/v8_0/spectre/v8_0_1/lpmos/models/res/rdn3.scs
Reading file: 
        /pkg/xfab/XKIT/xh018/cadence/v8_0/spectre/v8_0_1/lpmos/models/res/rdp3.scs
Reading file: 
        /pkg/xfab/XKIT/xh018/cadence/v8_0/spectre/v8_0_1/lpmos/models/res/rnw3.scs
Reading file: 
        /pkg/xfab/XKIT/xh018/cadence/v8_0/spectre/v8_0_1/lpmos/models/res/rnw3_scr.scs
Reading file: 
        /pkg/xfab/XKIT/xh018/cadence/v8_0/spectre/v8_0_1/lpmos/models/res/rdnwmv.scs
Reading file: 
        /pkg/xfab/XKIT/xh018/cadence/v8_0/spectre/v8_0_1/lpmos/models/res/rnp1.scs
Reading file: 
        /pkg/xfab/XKIT/xh018/cadence/v8_0/spectre/v8_0_1/lpmos/models/res/rnp1_3.scs
Reading file: 
        /pkg/xfab/XKIT/xh018/cadence/v8_0/spectre/v8_0_1/lpmos/models/res/rpp1.scs
Reading file: 
        /pkg/xfab/XKIT/xh018/cadence/v8_0/spectre/v8_0_1/lpmos/models/res/rpp1_3.scs
Reading file: 
        /pkg/xfab/XKIT/xh018/cadence/v8_0/spectre/v8_0_1/lpmos/models/res/rpp1s.scs
Reading file: 
        /pkg/xfab/XKIT/xh018/cadence/v8_0/spectre/v8_0_1/lpmos/models/res/rpp1s_3.scs
Reading file: 
        /pkg/xfab/XKIT/xh018/cadence/v8_0/spectre/v8_0_1/lpmos/models/res/rnp1h.scs
Reading file: 
        /pkg/xfab/XKIT/xh018/cadence/v8_0/spectre/v8_0_1/lpmos/models/res/rnp1h_3.scs
Reading file: 
        /pkg/xfab/XKIT/xh018/cadence/v8_0/spectre/v8_0_1/lpmos/models/res/rpp1k1.scs
Reading file: 
        /pkg/xfab/XKIT/xh018/cadence/v8_0/spectre/v8_0_1/lpmos/models/res/rpp1k1_3.scs
Reading file: 
        /pkg/xfab/XKIT/xh018/cadence/v8_0/spectre/v8_0_1/lpmos/models/res/rctdn.scs
Reading file: 
        /pkg/xfab/XKIT/xh018/cadence/v8_0/spectre/v8_0_1/lpmos/models/res/rctdp.scs
Reading file: 
        /pkg/xfab/XKIT/xh018/cadence/v8_0/spectre/v8_0_1/lpmos/models/res/rctp1.scs
Reading file: 
        /pkg/xfab/XKIT/xh018/cadence/v8_0/spectre/v8_0_1/lpmos/models/res/rsildn.scs
Reading file: 
        /pkg/xfab/XKIT/xh018/cadence/v8_0/spectre/v8_0_1/lpmos/models/res/rsildp.scs
Reading file: 
        /pkg/xfab/XKIT/xh018/cadence/v8_0/spectre/v8_0_1/lpmos/models/res/rsilnp1.scs
Reading file: 
        /pkg/xfab/XKIT/xh018/cadence/v8_0/spectre/v8_0_1/lpmos/models/res/rsilpp1.scs
Reading file: 
        /pkg/xfab/XKIT/xh018/cadence/v8_0/spectre/v8_0_1/lpmos/models/res/rsbdn.scs
Reading file: 
        /pkg/xfab/XKIT/xh018/cadence/v8_0/spectre/v8_0_1/lpmos/models/res/rsbdp.scs
Reading file: 
        /pkg/xfab/XKIT/xh018/cadence/v8_0/spectre/v8_0_1/lpmos/models/res/rsbdn3.scs
Reading file: 
        /pkg/xfab/XKIT/xh018/cadence/v8_0/spectre/v8_0_1/lpmos/models/res/rsbdp3.scs
Reading file: 
        /pkg/xfab/XKIT/xh018/cadence/v8_0/spectre/v8_0_1/lpmos/models/res/rsbnp1.scs
Reading file: 
        /pkg/xfab/XKIT/xh018/cadence/v8_0/spectre/v8_0_1/lpmos/models/res/rsbpp1.scs
Reading file: 
        /pkg/xfab/XKIT/xh018/cadence/v8_0/spectre/v8_0_1/lpmos/models/res/rsbpp1k1.scs
Reading file: 
        /pkg/xfab/XKIT/xh018/cadence/v8_0/spectre/v8_0_1/lpmos/models/res/rm1.scs
Reading file: 
        /pkg/xfab/XKIT/xh018/cadence/v8_0/spectre/v8_0_1/lpmos/models/res/rm2.scs
Reading file: 
        /pkg/xfab/XKIT/xh018/cadence/v8_0/spectre/v8_0_1/lpmos/models/res/rm3.scs
Reading file: 
        /pkg/xfab/XKIT/xh018/cadence/v8_0/spectre/v8_0_1/lpmos/models/res/rm4.scs
Reading file: 
        /pkg/xfab/XKIT/xh018/cadence/v8_0/spectre/v8_0_1/lpmos/models/res/rm5.scs
Reading file: 
        /pkg/xfab/XKIT/xh018/cadence/v8_0/spectre/v8_0_1/lpmos/models/res/rmtp.scs
Reading file: 
        /pkg/xfab/XKIT/xh018/cadence/v8_0/spectre/v8_0_1/lpmos/models/res/rmtpl.scs
Reading file: 
        /pkg/xfab/XKIT/xh018/cadence/v8_0/spectre/v8_0_1/lpmos/models/res/pfuse.scs
Reading file: 
        /pkg/xfab/XKIT/xh018/cadence/v8_0/spectre/v8_0_1/lpmos/models/res/s_res.scs
Reading file: 
        /home/ykhuang/research/Sim/TB_MultiChannel/ams/config/netlist/amsControlSpectre.scs
Reading file: 
        /home/ykhuang/research/Sim/TB_MultiChannel/ams/config/netlist/.amsbind.scs
Reading file: 
        /pkg/cadence/installs/XCELIUM1803/tools.lnx86/spectre/etc/configs/ams.cfg
Time for NDB Parsing: CPU = 826.853 ms, elapsed = 2.00397 s.
Time accumulated: CPU = 1.26422 s, elapsed = 2.00398 s.
Peak resident memory used = 107 Mbytes.

xcelium> source /pkg/cadence/installs/XCELIUM1803/tools/xcelium/files/xmsimrc
xcelium> 
xcelium> # This is the NC-SIM(R) probe command file
xcelium> # used in the AMS-ADE integration.
xcelium> 
xcelium> 
xcelium> #
xcelium> # Database settings
xcelium> #
xcelium> if { [info exists ::env(AMS_RESULTS_DIR) ] } { set AMS_RESULTS_DIR $env(AMS_RESULTS_DIR)} else {set AMS_RESULTS_DIR "../psf"}
../psf
xcelium> database -open ams_database -into ${AMS_RESULTS_DIR} -default
Created default SHM database ams_database
xcelium> 
xcelium> #
xcelium> # Probe settings
xcelium> #
xcelium> probe -create -emptyok -database ams_database {TB_MultiChannel.EMG_Ch1}
Created probe 1
xcelium> probe -create -emptyok -database ams_database {TB_MultiChannel.EMG_Ch2}
Created probe 2
xcelium> probe -create -emptyok -database ams_database {TB_MultiChannel.EMG_Ch3}
Created probe 3
xcelium> probe -create -emptyok -database ams_database {TB_MultiChannel.EMG_Ch4}
Created probe 4
xcelium> probe -create -emptyok -database ams_database {TB_MultiChannel.EMG_Ch5}
Created probe 5
xcelium> probe -create -emptyok -database ams_database {TB_MultiChannel.EMG_Ch6}
Created probe 6
xcelium> probe -create -emptyok -database ams_database {TB_MultiChannel.EMG_Ch7}
Created probe 7
xcelium> probe -create -emptyok -database ams_database {TB_MultiChannel.EMG_Ch8}
Created probe 8
xcelium> probe -create -emptyok -database ams_database {TB_MultiChannel.EMG_Ch9}
Created probe 9
xcelium> probe -create -emptyok -database ams_database {TB_MultiChannel.EMG_Ch10}
Created probe 10
xcelium> probe -create -emptyok -database ams_database {TB_MultiChannel.EMG_Ch11}
Created probe 11
xcelium> probe -create -emptyok -database ams_database {TB_MultiChannel.EMG_Ch12}
Created probe 12
xcelium> probe -create -emptyok -database ams_database {TB_MultiChannel.EMG_Ch13}
Created probe 13
xcelium> probe -create -emptyok -database ams_database {TB_MultiChannel.EMG_Ch14}
Created probe 14
xcelium> probe -create -emptyok -database ams_database {TB_MultiChannel.EMG_Ch15}
Created probe 15
xcelium> probe -create -emptyok -database ams_database {TB_MultiChannel.EMG_Ch16}
Created probe 16
xcelium> probe -create -emptyok -database ams_database {TB_MultiChannel.EMG_ADC_CLK}
Created probe 17
xcelium> probe -create -emptyok -database ams_database {TB_MultiChannel.EMG_MUX_CLK}
Created probe 18
xcelium> probe -create -emptyok -database ams_database {TB_MultiChannel.EMG_CH_SEL[3]}
Created probe 19
xcelium> probe -create -emptyok -database ams_database {TB_MultiChannel.EMG_CH_SEL[2]}
Created probe 20
xcelium> probe -create -emptyok -database ams_database {TB_MultiChannel.EMG_CH_SEL[1]}
Created probe 21
xcelium> probe -create -emptyok -database ams_database {TB_MultiChannel.EMG_CH_SEL[0]}
Created probe 22
xcelium> probe -create -emptyok -database ams_database {TB_MultiChannel.EMG_ADC_START}
Created probe 23
xcelium> probe -create -emptyok -database ams_database {TB_MultiChannel.EMG_GAIN_SEL[2]}
Created probe 24
xcelium> probe -create -emptyok -database ams_database {TB_MultiChannel.EMG_GAIN_SEL[1]}
Created probe 25
xcelium> probe -create -emptyok -database ams_database {TB_MultiChannel.EMG_GAIN_SEL[0]}
Created probe 26
xcelium> probe -create -emptyok -database ams_database {TB_MultiChannel.EMG_ADC_EOC}
Created probe 27
xcelium> probe -create -emptyok -database ams_database {TB_MultiChannel.EMG_ADC_DOUT[11]}
Created probe 28
xcelium> probe -create -emptyok -database ams_database {TB_MultiChannel.EMG_ADC_DOUT[10]}
Created probe 29
xcelium> probe -create -emptyok -database ams_database {TB_MultiChannel.EMG_ADC_DOUT[9]}
Created probe 30
xcelium> probe -create -emptyok -database ams_database {TB_MultiChannel.EMG_ADC_DOUT[8]}
Created probe 31
xcelium> probe -create -emptyok -database ams_database {TB_MultiChannel.EMG_ADC_DOUT[7]}
Created probe 32
xcelium> probe -create -emptyok -database ams_database {TB_MultiChannel.EMG_ADC_DOUT[6]}
Created probe 33
xcelium> probe -create -emptyok -database ams_database {TB_MultiChannel.EMG_ADC_DOUT[5]}
Created probe 34
xcelium> probe -create -emptyok -database ams_database {TB_MultiChannel.EMG_ADC_DOUT[4]}
Created probe 35
xcelium> probe -create -emptyok -database ams_database {TB_MultiChannel.EMG_ADC_DOUT[3]}
Created probe 36
xcelium> probe -create -emptyok -database ams_database {TB_MultiChannel.EMG_ADC_DOUT[2]}
Created probe 37
xcelium> probe -create -emptyok -database ams_database {TB_MultiChannel.EMG_ADC_DOUT[1]}
Created probe 38
xcelium> probe -create -emptyok -database ams_database {TB_MultiChannel.EMG_ADC_DOUT[0]}
Created probe 39
xcelium> probe -create -emptyok -database ams_database {TB_MultiChannel.OUT_DAC}
Created probe 40
xcelium> 
xcelium> run

Time for Elaboration: CPU = 235.005 ms, elapsed = 277.101 ms.
Time accumulated: CPU = 1.49939 s, elapsed = 2.28124 s.
Peak resident memory used = 139 Mbytes.


Warning from spectre during hierarchy flattening.
    WARNING (SPECTRE-17101): The value 'psf' specified using the
        'checklimitdest' option will no longer be supported in future
        releases.



Warning from spectre during hierarchy flattening.
    WARNING (SPECTRE-8527): There are some nodes and instances removed from the
        netlist topology check. Check the circuit and correct the topology. Or
        use preserve_inst to keep them if necessary.

***********************************************
  Total removed instances 1 ( dangling 1, terminals connected together 0)  

Warning from spectre during hierarchy flattening.
    WARNING (SPECTRE-8529): Dangling instance. TB_MultiChannel.V3 is removed.


  Total removed nodes 1 ( dangling nodes 1, floating nodes 0 )

Warning from spectre during hierarchy flattening.
    WARNING (SPECTRE-8530): Dangling node. TB_MultiChannel.vddd is removed.
    WARNING (SPECTRE-8531): Floating node. TB_MultiChannel.EMG_ADC_EN is
        removed.
    WARNING (SPECTRE-8531): Floating node. TB_MultiChannel.EMG_ADC_EOC is
        removed.
    WARNING (SPECTRE-8531): Floating node. TB_MultiChannel.EMG_ADC_START is
        removed.
    WARNING (SPECTRE-8531): Floating node. TB_MultiChannel.EMG_MUX_CLK is
        removed.
    WARNING (SPECTRE-8531): Floating node.
        TB_MultiChannel.I9__EMG_ADC_CLK__9__0 is removed.
        Further occurrences of this warning will be suppressed.

***********************************************
Time for EDB Visiting: CPU = 6.913 ms, elapsed = 6.91414 ms.
Time accumulated: CPU = 1.50654 s, elapsed = 2.28839 s.
Peak resident memory used = 140 Mbytes.


Notice from spectre during topology check.
    No connections to node `TB_MultiChannel.I9__EMG_ADC_DOUT__6__0'.
    No connections to node `TB_MultiChannel.I9__EMG_ADC_DOUT__6__1'.
    No connections to node `TB_MultiChannel.I9__EMG_ADC_DOUT__6__10'.
    No connections to node `TB_MultiChannel.I9__EMG_ADC_DOUT__6__11'.
    No connections to node `TB_MultiChannel.I9__EMG_ADC_DOUT__6__2'.
        Further occurrences of this notice will be suppressed (except in log
        file).
    Only one connection to node `TB_MultiChannel.OUT_DAC'.
    No DC path from node `TB_MultiChannel.I9__EMG_ADC_DOUT__6__0' to ground,
        Gmin installed to provide path.
    No DC path from node `TB_MultiChannel.I9__EMG_ADC_DOUT__6__1' to ground,
        Gmin installed to provide path.
    No DC path from node `TB_MultiChannel.I9__EMG_ADC_DOUT__6__10' to ground,
        Gmin installed to provide path.
    No DC path from node `TB_MultiChannel.I9__EMG_ADC_DOUT__6__11' to ground,
        Gmin installed to provide path.
    No DC path from node `TB_MultiChannel.I9__EMG_ADC_DOUT__6__2' to ground,
        Gmin installed to provide path.
        Further occurrences of this notice will be suppressed (except in log
        file).

Notice from spectre during initial setup.
    Multithreading is disabled due to the size of the design being too small.

Global user options:
      addflowsuffix = yes
        dotprobefmt = hier
               temp = 27
            vabstol = 1e-06
            iabstol = 1e-12
           homotopy = 7
              limit = delta
               gmin = 1e-12
             rforce = 1
           maxnotes = 5
           maxwarns = 5
             digits = 5
             pivrel = 0.001
     checklimitdest = psf
             rawfmt = sst2
               save = selected
               tnom = 27
              scale = 1
             scalem = 1
             reltol = 0.0001

Scoped user options:

Circuit inventory:
              nodes 152
connectLib__Bidir_2__module__0x10000001_behavioral 2     
connectLib__E2L_2__module__0x10000001_behavioral 3     
connectLib__E2R__module__0x10000001_behavioral 3     
connectLib__L2E_2__module__0x10000001_behavioral 13    
EMG_Model__ANA_MUX_EMG__verilogams__0x10000001_behavioral 1     
EMG_Model__BPF_EMG__verilogams__0x10000001_behavioral 16    
EMG_Model__DAC_EMG__verilogams__0x10000001_behavioral 1     
EMG_Model__IA_EMG_Ideal__verilogams__0x10000001_behavioral 16    
EMG_Model__PGA_EMG__verilogams__0x10000001_behavioral 16    
EMG_Model__Signal_Gen__verilogams__0x10000001_behavioral 1     
            vsource 8     

Analysis and control statement inventory:
               info 4     
               tran 1     

Output statements:
             .probe 0     
           .measure 0     
               save 30    


Notice from spectre during initial setup.
    4 vsources are short because their absolute value is less than or equal to
        'vabsshort'.
    Fast APS Enabled.
    28 notices suppressed.
    6 warnings suppressed.

Time for parsing: CPU = 7.933 ms, elapsed = 12.7089 ms.
Time accumulated: CPU = 1.51466 s, elapsed = 2.30128 s.
Peak resident memory used = 141 Mbytes.

~~~~~~~~~~~~~~~~~~~~~~
Pre-Simulation Summary
~~~~~~~~~~~~~~~~~~~~~~
~~~~~~~~~~~~~~~~~~~~~~

************************************************
Transient Analysis `tran': time = (0 s -> 10 ms)
************************************************

Warning from spectre during IC analysis, during transient analysis `tran'.
    WARNING (SPECTRE-16881): Detected possible convergence difficulties which
        might be related to Verilog-A models. Use the command-line option
        '-ahdllint=warn' to check the Verilog-A modeling issues.

Trying `homotopy = gmin' for initial conditions.
Warning from spectre during IC analysis, during transient analysis `tran'.
    WARNING (SPECTRE-16881): Detected possible convergence difficulties which
        might be related to Verilog-A models. Use the command-line option
        '-ahdllint=warn' to check the Verilog-A modeling issues.

Trying `homotopy = source' for initial conditions.
Warning from spectre during IC analysis, during transient analysis `tran'.
    WARNING (SPECTRE-16881): Detected possible convergence difficulties which
        might be related to Verilog-A models. Use the command-line option
        '-ahdllint=warn' to check the Verilog-A modeling issues.

Trying `homotopy = dptran' for initial conditions.

Warning from spectre during IC analysis, during transient analysis `tran'.
    WARNING (SPECTRE-16881): Detected possible convergence difficulties which
        might be related to Verilog-A models. Use the command-line option
        '-ahdllint=warn' to check the Verilog-A modeling issues.

.

Notice from spectre during IC analysis, during transient analysis `tran'.
    Bad pivoting is found during DC analysis. Option dc_pivot_check=yes is
        recommended for possible improvement of convergence.

DC simulation time: CPU = 34.942 ms, elapsed = 34.914 ms.
Important parameter values:
    start = 0 s
    outputstart = 0 s
    stop = 10 ms
    step = 10 us
    maxstep = 200 us
    ic = all
    useprevic = no
    skipdc = no
    reltol = 1e-03
    abstol(V) = 1 uV
    abstol(I) = 1 pA
    temp = 27 C
    tnom = 27 C
    tempeffects = all
    errpreset = liberal
    method = trapgear2
    lteratio = 3.5
    relref = sigglobal
    cmin = 0 F
    gmin = 1 pS
    rabsshort = 1 mOhm
    compression = wildcardonly


Notice from spectre during transient analysis `tran'.
    Multithreading is disabled due to the size of the design being too small.


Output and IC/nodeset summary:
                 save   30      (voltage)

    tran: time = 250 us       (2.5 %), step = 434 ns      (4.34 m%)
    tran: time = 750 us       (7.5 %), step = 434 ns      (4.34 m%)
    tran: time = 1.25 ms     (12.5 %), step = 434.6 ns    (4.35 m%)
    tran: time = 1.75 ms     (17.5 %), step = 434.6 ns    (4.35 m%)
    tran: time = 2.25 ms     (22.5 %), step = 434.4 ns    (4.34 m%)
    tran: time = 2.75 ms     (27.5 %), step = 434.6 ns    (4.35 m%)
    tran: time = 3.25 ms     (32.5 %), step = 434.6 ns    (4.35 m%)
    tran: time = 3.75 ms     (37.5 %), step = 434.4 ns    (4.34 m%)
    tran: time = 4.25 ms     (42.5 %), step = 434.6 ns    (4.35 m%)
    tran: time = 4.75 ms     (47.5 %), step = 655.4 ns    (6.55 m%)
    tran: time = 5.25 ms     (52.5 %), step = 655.2 ns    (6.55 m%)
    tran: time = 5.75 ms     (57.5 %), step = 546.2 ns    (5.46 m%)
    tran: time = 6.25 ms     (62.5 %), step = 761.6 ns    (7.62 m%)
    tran: time = 6.75 ms     (67.5 %), step = 433.8 ns    (4.34 m%)
    tran: time = 7.25 ms     (72.5 %), step = 736 ns      (7.36 m%)
    tran: time = 7.75 ms     (77.5 %), step = 767.6 ns    (7.68 m%)
    tran: time = 8.251 ms    (82.5 %), step = 655.2 ns    (6.55 m%)
    tran: time = 8.751 ms    (87.5 %), step = 655.4 ns    (6.55 m%)
    tran: time = 9.25 ms     (92.5 %), step = 546.2 ns    (5.46 m%)
    tran: time = 9.751 ms    (97.5 %), step = 791.8 ns    (7.92 m%)

The analog simulator has reached stop time, please use `analog -stop <new stop time>' to extend the analog stop time.
Simulation stopped via transient analysis stoptime at time 10 MS
Memory Usage - Current physical: 147.2M, Current virtual: 626.0M
CPU Usage - 0.7s system + 12.3s user = 13.0s total (85.7% cpu)
xcelium> exit
Number of accepted tran steps =             39408

Maximum value achieved for any signal of each quantity: 
V: V(TB_MultiChannel.EMG_ADC_CLK) = 1.8 V
I: I(TB_MultiChannel.V2:p) = 180 nA
If your circuit contains signals of the same quantity that are vastly different
        in size (such as high voltage circuitry combined with low voltage
        control circuitry), you should consider specifying global option
        `bin_relref=yes'.

~~~~~~~~~~~~~~~~~~~~~~~~~~~~~~~~~
Post-Transient Simulation Summary
~~~~~~~~~~~~~~~~~~~~~~~~~~~~~~~~~
~~~~~~~~~~~~~~~~~~~~~~~~~~~~~~~~~


During simulation, the CPU load for active processors is :
        Spectre  0 (1.6 %)       1 (80.2 %)      2 (5.5 %)       3 (10.7 %)
                16 (1.0 %)      17 (2.0 %)      18 (3.0 %)      19 (1.3 %)
                20 (1.9 %)      21 (11.2 %)     22 (6.4 %)      23 (2.0 %)
        Other   
Initial condition solution time: CPU = 35.04 ms, elapsed = 35.012 ms.

**** AMSD: Mixed-Signal Activity Statistics ****
Number of A-to-D events:                   18428
  Number of A-to-D events in IEs:          18428
Number of D-to-A events:                    9888
  Number of D-to-A events in IEs:           9610
Number of VHDL-AMS Breaks:                     0

Intrinsic tran analysis time:    CPU = 11.6667 s, elapsed = 11.5914 s.
Total time required for tran analysis `tran': CPU = 11.7046 s, elapsed =
        11.6317 s.
Time accumulated: CPU = 13.2352 s, elapsed = 13.9522 s.
Peak resident memory used = 147 Mbytes.

finalTimeOP: writing operating point information to rawfile.

Opening the PSF file ../psf/finalTimeOP.info ...
modelParameter: writing model parameter values to rawfile.

Opening the PSF file ../psf/modelParameter.info ...
element: writing instance parameter values to rawfile.

Opening the PSF file ../psf/element.info ...
outputParameter: writing output parameter values to rawfile.

Opening the PSF file ../psf/outputParameter.info ...
Simulation complete via transient analysis stoptime at time 10 MS

Aggregate audit (6:23:18 PM, Fri Feb 19, 2021):
Time used: CPU = 13.2 s, elapsed = 14 s, util. = 94.8%.
Time spent in licensing: elapsed = 161 ms.
Peak memory used = 148 Mbytes.
Simulation started at: 6:23:04 PM, Fri Feb 19, 2021, ended at: 6:23:18 PM, Fri
        Feb 19, 2021, with elapsed time (wall clock): 14 s.
spectre completes with 0 errors, 13 warnings, and 19 notices.
xmsim: Memory Usage - Final: 145.8M, Peak: 147.9M, Peak virtual: 626.2M
xmsim: CPU Usage - 1.7s system + 14.4s user = 16.1s total (15.3s, 100.0% cpu)
