
Spectre (R) Circuit Simulator
Version 17.1.0.433.isr9 64bit -- 5 Nov 2018
Copyright (C) 1989-2018 Cadence Design Systems, Inc. All rights reserved worldwide. Cadence and Spectre are registered trademarks of Cadence Design Systems, Inc. All others are the property of their respective holders.

Includes RSA BSAFE(R) Cryptographic or Security Protocol Software from RSA Security, Inc.

User: ykhuang   Host: s2424   HostID: ED824314   PID: 6789
Memory  available: 49.5883 GB  physical: 67.2863 GB
Linux   : CentOS Linux release 7.9.2009 (Core)
CPU Type: Intel(R) Xeon(R) CPU E5-2630 v3 @ 2.40GHz
        Socket: Processors [Frequency] (Hyperthreaded Processor)
        0:       0 [1200.0] ( 16 ),  1 [1239.4] ( 17 ),  2 [1200.0] ( 18 )
                 3 [1200.0] ( 19 ),  4 [1200.0] ( 20 ),  5 [1200.0] ( 21 )
                 6 [1200.0] ( 22 ),  7 [1200.3] ( 23 )
        1:       8 [1200.0] ( 24 ),  9 [1200.3] ( 25 ), 10 [1269.7] ( 26 )
                11 [1200.0] ( 27 ), 12 [1200.0] ( 28 ), 13 [1200.0] ( 29 )
                14 [1200.1] ( 30 ), 15 [1200.0] ( 31 )
        
System load averages (1min, 5min, 15min) : 1.9 %, 1.3 %, 0.8 %
Hyperthreading is enabled


Simulating `/home/ykhuang/research/Sim/Stimulator_TestBench/TB_OneCH_Top/adexl/results/data/Interactive.2/15/Stimulator_TestBench:TB_OneCH_Top:1/netlist/.mapi//xcelium.d/AMSD/ams_spice_in/./.amsspice_pre.ckt' on s2424 at 2:22:59 PM, Mon Apr 5, 2021 (process id: 6789).
Current working directory: /home/ykhuang/research/Sim/Stimulator_TestBench/TB_OneCH_Top/adexl/results/data/Interactive.2/15/Stimulator_TestBench:TB_OneCH_Top:1/netlist
Environment variable:
    SPECTRE_DEFAULTS=
Command line:
    amsprimtool  \
        /home/ykhuang/research/Sim/Stimulator_TestBench/TB_OneCH_Top/adexl/results/data/Interactive.2/15/Stimulator_TestBench:TB_OneCH_Top:1/netlist/.mapi//xcelium.d/AMSD/ams_spice_in/./.amsspice_pre.ckt  \
        -noraw -va,amsspice_pre -ahdllibdir  \
        /home/ykhuang/research/Sim/Stimulator_TestBench/TB_OneCH_Top/adexl/results/data/Interactive.2/15/Stimulator_TestBench:TB_OneCH_Top:1/netlist/.mapi//xcelium.d/AMSD/ams_spice_in/ahdlSimDB  \
        =log  \
        /home/ykhuang/research/Sim/Stimulator_TestBench/TB_OneCH_Top/adexl/results/data/Interactive.2/15/Stimulator_TestBench:TB_OneCH_Top:1/netlist/.mapi//xcelium.d/AMSD/ams_spice_in/./.amsspice_pre.ckt.log  \
        -token  \
        0001AF26C83A239465DFBB2CC00A229E73C4B63DFD3B60CB2080E838B83335D47FDDA126F37837D471DEBA2AFC31339371C2EE03B60624923FE3B033F21622A464DF992CD73A3E9852D5A330EB763E9E4FFF981981157F9A7FC0FF23EC2A35883FC2F32AF924318F3FD49536FE72229A64D5A465BC6762D4759EF307B17C3D8E64D9AE0DD538049E62EF843BF67238C17ED39917FA3613B37ED5FD7C9D067F952A81B720A7667FD563C4F77BF83E28983F9FAC66EC7F34D47D9ED418C1023D883FD1BB31ED260F9273D5A873EE603D883ED1A401EE3E208975EFBF76BB2563CC6490FE3EA83870CB7584A83DEEB8537F10B0A126F35737FB71DEA80F9E0E50FB24B09204D83C65FB2A89A83DED3C50FB10B0A83DED3C50FB10B0C856EC1D51DA70DB000083C2

Loading /pkg/cadence/installs/XCELIUM1803/tools.lnx86/cmi/lib/64bit/5.0/libinfineon_sh.so ...
Loading /pkg/cadence/installs/XCELIUM1803/tools.lnx86/cmi/lib/64bit/5.0/libphilips_o_sh.so ...
Loading /pkg/cadence/installs/XCELIUM1803/tools.lnx86/cmi/lib/64bit/5.0/libphilips_sh.so ...
Loading /pkg/cadence/installs/XCELIUM1803/tools.lnx86/cmi/lib/64bit/5.0/libsparam_sh.so ...
Loading /pkg/cadence/installs/XCELIUM1803/tools.lnx86/cmi/lib/64bit/5.0/libstmodels_sh.so ...
Reading file:  /home/ykhuang/research/Sim/Stimulator_TestBench/TB_OneCH_Top/adexl/results/data/Interactive.2/15/Stimulator_TestBench:TB_OneCH_Top:1/netlist/.mapi/xcelium.d/AMSD/ams_spice_in/.amsspice_pre.ckt
Reading file:  /pkg/cadence/installs/XCELIUM1803/tools.lnx86/spectre/etc/configs/mapsubckt.cfg
Reading file:  /pkg/cadence/installs/XCELIUM1803/tools.lnx86/spectre/etc/configs/spectre.cfg
Time for NDB Parsing: CPU = 126.196 ms, elapsed = 213.945 ms.
Time accumulated: CPU = 192.216 ms, elapsed = 213.957 ms.
Peak resident memory used = 48.3 Mbytes.

