
Spectre (R) Circuit Simulator
Version 18.1.0.516.isr12 64bit -- 25 Oct 2019
Copyright (C) 1989-2019 Cadence Design Systems, Inc. All rights reserved worldwide. Cadence and Spectre are registered trademarks of Cadence Design Systems, Inc. All others are the property of their respective holders.

Includes RSA BSAFE(R) Cryptographic or Security Protocol Software from RSA Security, Inc.

User: ykhuang   Host: s2424   HostID: ED824314   PID: 11322
Memory  available: 49.0169 GB  physical: 67.2863 GB
Linux   : CentOS Linux release 7.9.2009 (Core)
CPU Type: Intel(R) Xeon(R) CPU E5-2630 v3 @ 2.40GHz
        Socket: Processors [Frequency] (Hyperthreaded Processor)
        0:       0 [1200.1] ( 16 ),  1 [1288.2] ( 17 ),  2 [1264.9] ( 18 )
                 3 [1282.5] ( 19 ),  4 [1271.8] ( 20 ),  5 [1249.1] ( 21 )
                 6 [1234.9] ( 22 ),  7 [1200.0] ( 23 )
        1:       8 [1375.3] ( 24 ),  9 [1302.2] ( 25 ), 10 [1268.4] ( 26 )
                11 [1222.1] ( 27 ), 12 [1290.8] ( 28 ), 13 [1222.7] ( 29 )
                14 [1425.0] ( 30 ), 15 [1326.1] ( 31 )
        
System load averages (1min, 5min, 15min) : 1.6 %, 1.2 %, 0.8 %
Hyperthreading is enabled


Simulating `input.scs' on s2424 at 4:32:50 PM, Thur Mar 25, 2021 (process id: 11322).
Current working directory: /home/ykhuang/research/Sim/Stimulator_TestBench/TB_Iref_imp/adexl/results/data/Interactive.4/24/Stimulator_TestBench:TB_Iref_imp:1/netlist
Command line:
    /pkg/cadence/installs/SPECTRE181/tools/bin/spectre -64 input.scs  \
        +escchars +log ../psf/spectre.out -format psfxl -raw ../psf  \
        +lqtimeout 900 -maxw 5 -maxn 5 -env ade -ahdllibdir  \
        /home/ykhuang/research/Sim/Stimulator_TestBench/TB_Iref_imp/adexl/results/data/Interactive.4/sharedData/Job8/ahdl/input.ahdlSimDB  \
        +logstatus

Loading /pkg/cadence/installs/SPECTRE181/tools.lnx86/cmi/lib/64bit/5.0/libinfineon_sh.so ...
Loading /pkg/cadence/installs/SPECTRE181/tools.lnx86/cmi/lib/64bit/5.0/libphilips_o_sh.so ...
Loading /pkg/cadence/installs/SPECTRE181/tools.lnx86/cmi/lib/64bit/5.0/libphilips_sh.so ...
Loading /pkg/cadence/installs/SPECTRE181/tools.lnx86/cmi/lib/64bit/5.0/libsparam_sh.so ...
Loading /pkg/cadence/installs/SPECTRE181/tools.lnx86/cmi/lib/64bit/5.0/libstmodels_sh.so ...
Reading file:  /home/ykhuang/research/Sim/Stimulator_TestBench/TB_Iref_imp/adexl/results/data/Interactive.4/24/Stimulator_TestBench:TB_Iref_imp:1/netlist/input.scs
Reading file:  /pkg/cadence/installs/SPECTRE181/tools.lnx86/spectre/etc/configs/spectre.cfg
Reading file:  /pkg/xfab/XKIT/xh018/cadence/v8_0/spectre/v8_0_1/lpmos/param.scs
Reading file:  /pkg/xfab/XKIT/xh018/cadence/v8_0/spectre/v8_0_1/lpmos/bip.scs
Reading file:  /pkg/xfab/XKIT/xh018/cadence/v8_0/spectre/v8_0_1/lpmos/models/bip/tm_bip.scs
Reading file:  /pkg/xfab/XKIT/xh018/cadence/v8_0/spectre/v8_0_1/lpmos/models/bip/qpva.scs
Reading file:  /pkg/xfab/XKIT/xh018/cadence/v8_0/spectre/v8_0_1/lpmos/models/bip/qpvb.scs
Reading file:  /pkg/xfab/XKIT/xh018/cadence/v8_0/spectre/v8_0_1/lpmos/models/bip/qpvc.scs
Reading file:  /pkg/xfab/XKIT/xh018/cadence/v8_0/spectre/v8_0_1/lpmos/models/bip/qpva3.scs
Reading file:  /pkg/xfab/XKIT/xh018/cadence/v8_0/spectre/v8_0_1/lpmos/models/bip/qpvb3.scs
Reading file:  /pkg/xfab/XKIT/xh018/cadence/v8_0/spectre/v8_0_1/lpmos/models/bip/qpvc3.scs
Reading file:  /pkg/xfab/XKIT/xh018/cadence/v8_0/spectre/v8_0_1/lpmos/models/bip/qnva.scs
Reading file:  /pkg/xfab/XKIT/xh018/cadence/v8_0/spectre/v8_0_1/lpmos/models/bip/qnvb.scs
Reading file:  /pkg/xfab/XKIT/xh018/cadence/v8_0/spectre/v8_0_1/lpmos/models/bip/qnvb_npn.scs
Reading file:  /pkg/xfab/XKIT/xh018/cadence/v8_0/spectre/v8_0_1/lpmos/models/bip/qnvb_pnp.scs
Reading file:  /pkg/xfab/XKIT/xh018/cadence/v8_0/spectre/v8_0_1/lpmos/models/bip/qnvc.scs
Reading file:  /pkg/xfab/XKIT/xh018/cadence/v8_0/spectre/v8_0_1/lpmos/models/bip/qnvc_npn.scs
Reading file:  /pkg/xfab/XKIT/xh018/cadence/v8_0/spectre/v8_0_1/lpmos/models/bip/qnvc_pnp.scs
Reading file:  /pkg/xfab/XKIT/xh018/cadence/v8_0/spectre/v8_0_1/lpmos/models/bip/qpvhscr.scs
Reading file:  /pkg/xfab/XKIT/xh018/cadence/v8_0/spectre/v8_0_1/lpmos/models/bip/qpvascr.scs
Reading file:  /pkg/xfab/XKIT/xh018/cadence/v8_0/spectre/v8_0_1/lpmos/models/bip/qpvhbscr.scs
Reading file:  /pkg/xfab/XKIT/xh018/cadence/v8_0/spectre/v8_0_1/lpmos/models/bip/qpv_pa.scs
Reading file:  /pkg/xfab/XKIT/xh018/cadence/v8_0/spectre/v8_0_1/lpmos/models/bip/qpv_pb.scs
Reading file:  /pkg/xfab/XKIT/xh018/cadence/v8_0/spectre/v8_0_1/lpmos/models/bip/qpv_pc.scs
Reading file:  /pkg/xfab/XKIT/xh018/cadence/v8_0/spectre/v8_0_1/lpmos/models/bip/qpv_pd.scs
Reading file:  /pkg/xfab/XKIT/xh018/cadence/v8_0/spectre/v8_0_1/lpmos/models/bip/qpv_pe.scs
Reading file:  /pkg/xfab/XKIT/xh018/cadence/v8_0/spectre/v8_0_1/lpmos/models/bip/qpv_pf.scs
Reading file:  /pkg/xfab/XKIT/xh018/cadence/v8_0/spectre/v8_0_1/lpmos/models/bip/qpl_pa.scs
Reading file:  /pkg/xfab/XKIT/xh018/cadence/v8_0/spectre/v8_0_1/lpmos/models/bip/qpl_pb.scs
Reading file:  /pkg/xfab/XKIT/xh018/cadence/v8_0/spectre/v8_0_1/lpmos/models/bip/qpl_pc.scs
Reading file:  /pkg/xfab/XKIT/xh018/cadence/v8_0/spectre/v8_0_1/lpmos/models/bip/qpl_pd.scs
Reading file:  /pkg/xfab/XKIT/xh018/cadence/v8_0/spectre/v8_0_1/lpmos/models/bip/qpl_pe.scs
Reading file:  /pkg/xfab/XKIT/xh018/cadence/v8_0/spectre/v8_0_1/lpmos/models/bip/qpl_pf.scs
Reading file:  /pkg/xfab/XKIT/xh018/cadence/v8_0/spectre/v8_0_1/lpmos/models/bip/qnl_pa.scs
Reading file:  /pkg/xfab/XKIT/xh018/cadence/v8_0/spectre/v8_0_1/lpmos/models/bip/qnl_pb.scs
Reading file:  /pkg/xfab/XKIT/xh018/cadence/v8_0/spectre/v8_0_1/lpmos/models/bip/qnl_pc.scs
Reading file:  /pkg/xfab/XKIT/xh018/cadence/v8_0/spectre/v8_0_1/lpmos/models/bip/qnl_pd.scs
Reading file:  /pkg/xfab/XKIT/xh018/cadence/v8_0/spectre/v8_0_1/lpmos/models/bip/qnl_pe.scs
Reading file:  /pkg/xfab/XKIT/xh018/cadence/v8_0/spectre/v8_0_1/lpmos/models/bip/qnl_pf.scs
Reading file:  /pkg/xfab/XKIT/xh018/cadence/v8_0/spectre/v8_0_1/lpmos/cap.scs
Reading file:  /pkg/xfab/XKIT/xh018/cadence/v8_0/spectre/v8_0_1/lpmos/models/cap/ws_cap.scs
Reading file:  /pkg/xfab/XKIT/xh018/cadence/v8_0/spectre/v8_0_1/lpmos/models/cap/csandwt3.scs
Reading file:  /pkg/xfab/XKIT/xh018/cadence/v8_0/spectre/v8_0_1/lpmos/models/cap/csandwt4.scs
Reading file:  /pkg/xfab/XKIT/xh018/cadence/v8_0/spectre/v8_0_1/lpmos/models/cap/csandwt5.scs
Reading file:  /pkg/xfab/XKIT/xh018/cadence/v8_0/spectre/v8_0_1/lpmos/models/cap/csf2p.scs
Reading file:  /pkg/xfab/XKIT/xh018/cadence/v8_0/spectre/v8_0_1/lpmos/models/cap/csf3p.scs
Reading file:  /pkg/xfab/XKIT/xh018/cadence/v8_0/spectre/v8_0_1/lpmos/models/cap/csf3.scs
Reading file:  /pkg/xfab/XKIT/xh018/cadence/v8_0/spectre/v8_0_1/lpmos/models/cap/csf4.scs
Reading file:  /pkg/xfab/XKIT/xh018/cadence/v8_0/spectre/v8_0_1/lpmos/models/cap/csf5.scs
Reading file:  /pkg/xfab/XKIT/xh018/cadence/v8_0/spectre/v8_0_1/lpmos/models/cap/csft4.scs
Reading file:  /pkg/xfab/XKIT/xh018/cadence/v8_0/spectre/v8_0_1/lpmos/models/cap/csft5.scs
Reading file:  /pkg/xfab/XKIT/xh018/cadence/v8_0/spectre/v8_0_1/lpmos/models/cap/csft6.scs
Reading file:  /pkg/xfab/XKIT/xh018/cadence/v8_0/spectre/v8_0_1/lpmos/models/cap/csf3a.scs
Reading file:  /pkg/xfab/XKIT/xh018/cadence/v8_0/spectre/v8_0_1/lpmos/models/cap/csf4a.scs
Reading file:  /pkg/xfab/XKIT/xh018/cadence/v8_0/spectre/v8_0_1/lpmos/models/cap/csf5a.scs
Reading file:  /pkg/xfab/XKIT/xh018/cadence/v8_0/spectre/v8_0_1/lpmos/models/cap/csft4a.scs
Reading file:  /pkg/xfab/XKIT/xh018/cadence/v8_0/spectre/v8_0_1/lpmos/models/cap/csft5a.scs
Reading file:  /pkg/xfab/XKIT/xh018/cadence/v8_0/spectre/v8_0_1/lpmos/models/cap/csft6a.scs
Reading file:  /pkg/xfab/XKIT/xh018/cadence/v8_0/spectre/v8_0_1/lpmos/models/cap/cmm3.scs
Reading file:  /pkg/xfab/XKIT/xh018/cadence/v8_0/spectre/v8_0_1/lpmos/models/cap/cmm4t.scs
Reading file:  /pkg/xfab/XKIT/xh018/cadence/v8_0/spectre/v8_0_1/lpmos/models/cap/cmm4.scs
Reading file:  /pkg/xfab/XKIT/xh018/cadence/v8_0/spectre/v8_0_1/lpmos/models/cap/cmm5t.scs
Reading file:  /pkg/xfab/XKIT/xh018/cadence/v8_0/spectre/v8_0_1/lpmos/models/cap/cmm6t.scs
Reading file:  /pkg/xfab/XKIT/xh018/cadence/v8_0/spectre/v8_0_1/lpmos/models/cap/cdmm4.scs
Reading file:  /pkg/xfab/XKIT/xh018/cadence/v8_0/spectre/v8_0_1/lpmos/models/cap/cdmm4t.scs
Reading file:  /pkg/xfab/XKIT/xh018/cadence/v8_0/spectre/v8_0_1/lpmos/models/cap/ctmm5.scs
Reading file:  /pkg/xfab/XKIT/xh018/cadence/v8_0/spectre/v8_0_1/lpmos/models/cap/ctmm5t.scs
Reading file:  /pkg/xfab/XKIT/xh018/cadence/v8_0/spectre/v8_0_1/lpmos/models/cap/cmmh3.scs
Reading file:  /pkg/xfab/XKIT/xh018/cadence/v8_0/spectre/v8_0_1/lpmos/models/cap/cmmh4t.scs
Reading file:  /pkg/xfab/XKIT/xh018/cadence/v8_0/spectre/v8_0_1/lpmos/models/cap/cmmh4.scs
Reading file:  /pkg/xfab/XKIT/xh018/cadence/v8_0/spectre/v8_0_1/lpmos/models/cap/cmmh5t.scs
Reading file:  /pkg/xfab/XKIT/xh018/cadence/v8_0/spectre/v8_0_1/lpmos/models/cap/cmmh6t.scs
Reading file:  /pkg/xfab/XKIT/xh018/cadence/v8_0/spectre/v8_0_1/lpmos/models/cap/cdmmh4.scs
Reading file:  /pkg/xfab/XKIT/xh018/cadence/v8_0/spectre/v8_0_1/lpmos/models/cap/cdmmh4t.scs
Reading file:  /pkg/xfab/XKIT/xh018/cadence/v8_0/spectre/v8_0_1/lpmos/models/cap/ctmmh5.scs
Reading file:  /pkg/xfab/XKIT/xh018/cadence/v8_0/spectre/v8_0_1/lpmos/models/cap/ctmmh5t.scs
Reading file:  /pkg/xfab/XKIT/xh018/cadence/v8_0/spectre/v8_0_1/lpmos/models/cap/mosvc.scs
Reading file:  /pkg/xfab/XKIT/xh018/cadence/v8_0/spectre/v8_0_1/lpmos/models/cap/mosvc_pmos.scs
Reading file:  /pkg/xfab/XKIT/xh018/cadence/v8_0/spectre/v8_0_1/lpmos/models/cap/mosvci.scs
Reading file:  /pkg/xfab/XKIT/xh018/cadence/v8_0/spectre/v8_0_1/lpmos/models/cap/mosvci_nmos.scs
Reading file:  /pkg/xfab/XKIT/xh018/cadence/v8_0/spectre/v8_0_1/lpmos/models/cap/mosvci_m.scs
Reading file:  /pkg/xfab/XKIT/xh018/cadence/v8_0/spectre/v8_0_1/lpmos/models/cap/mosvc3.scs
Reading file:  /pkg/xfab/XKIT/xh018/cadence/v8_0/spectre/v8_0_1/lpmos/models/cap/mosvc3_pmos.scs
Reading file:  /pkg/xfab/XKIT/xh018/cadence/v8_0/spectre/v8_0_1/lpmos/models/cap/mosvc3i.scs
Reading file:  /pkg/xfab/XKIT/xh018/cadence/v8_0/spectre/v8_0_1/lpmos/models/cap/mosvc3i_nmos.scs
Reading file:  /pkg/xfab/XKIT/xh018/cadence/v8_0/spectre/v8_0_1/lpmos/models/cap/mosvc3i_m.scs
Reading file:  /pkg/xfab/XKIT/xh018/cadence/v8_0/spectre/v8_0_1/lpmos/models/cap/cpod.scs
Reading file:  /pkg/xfab/XKIT/xh018/cadence/v8_0/spectre/v8_0_1/lpmos/models/cap/cpod_i.scs
Reading file:  /pkg/xfab/XKIT/xh018/cadence/v8_0/spectre/v8_0_1/lpmos/models/cap/cpodhv.scs
Reading file:  /pkg/xfab/XKIT/xh018/cadence/v8_0/spectre/v8_0_1/lpmos/models/cap/cpodhv_i.scs
Reading file:  /pkg/xfab/XKIT/xh018/cadence/v8_0/spectre/v8_0_1/lpmos/models/cap/cp1sub.scs
Reading file:  /pkg/xfab/XKIT/xh018/cadence/v8_0/spectre/v8_0_1/lpmos/models/cap/cp1suba.scs
Reading file:  /pkg/xfab/XKIT/xh018/cadence/v8_0/spectre/v8_0_1/lpmos/models/cap/cp1subp.scs
Reading file:  /pkg/xfab/XKIT/xh018/cadence/v8_0/spectre/v8_0_1/lpmos/models/cap/tag_25v.scs
Reading file:  /pkg/xfab/XKIT/xh018/cadence/v8_0/spectre/v8_0_1/lpmos/models/cap/tag_60v.scs
Reading file:  /pkg/xfab/XKIT/xh018/cadence/v8_0/spectre/v8_0_1/lpmos/dio.scs
Reading file:  /pkg/xfab/XKIT/xh018/cadence/v8_0/spectre/v8_0_1/lpmos/models/dio/tm_dio.scs
Reading file:  /pkg/xfab/XKIT/xh018/cadence/v8_0/spectre/v8_0_1/lpmos/models/dio/dn.scs
Reading file:  /pkg/xfab/XKIT/xh018/cadence/v8_0/spectre/v8_0_1/lpmos/models/dio/dp.scs
Reading file:  /pkg/xfab/XKIT/xh018/cadence/v8_0/spectre/v8_0_1/lpmos/models/dio/dnw.scs
Reading file:  /pkg/xfab/XKIT/xh018/cadence/v8_0/spectre/v8_0_1/lpmos/models/dio/dn3.scs
Reading file:  /pkg/xfab/XKIT/xh018/cadence/v8_0/spectre/v8_0_1/lpmos/models/dio/dnn3.scs
Reading file:  /pkg/xfab/XKIT/xh018/cadence/v8_0/spectre/v8_0_1/lpmos/models/dio/dp3.scs
Reading file:  /pkg/xfab/XKIT/xh018/cadence/v8_0/spectre/v8_0_1/lpmos/models/dio/dnw3.scs
Reading file:  /pkg/xfab/XKIT/xh018/cadence/v8_0/spectre/v8_0_1/lpmos/models/dio/ddnwmv.scs
Reading file:  /pkg/xfab/XKIT/xh018/cadence/v8_0/spectre/v8_0_1/lpmos/models/dio/dpdnwmv.scs
Reading file:  /pkg/xfab/XKIT/xh018/cadence/v8_0/spectre/v8_0_1/lpmos/models/dio/dipdnwmv.scs
Reading file:  /pkg/xfab/XKIT/xh018/cadence/v8_0/spectre/v8_0_1/lpmos/models/dio/ddnw.scs
Reading file:  /pkg/xfab/XKIT/xh018/cadence/v8_0/spectre/v8_0_1/lpmos/models/dio/dpdnw.scs
Reading file:  /pkg/xfab/XKIT/xh018/cadence/v8_0/spectre/v8_0_1/lpmos/models/dio/dipdnw.scs
Reading file:  /pkg/xfab/XKIT/xh018/cadence/v8_0/spectre/v8_0_1/lpmos/models/dio/dnhpw.scs
Reading file:  /pkg/xfab/XKIT/xh018/cadence/v8_0/spectre/v8_0_1/lpmos/models/dio/dnhpwa.scs
Reading file:  /pkg/xfab/XKIT/xh018/cadence/v8_0/spectre/v8_0_1/lpmos/models/dio/dphnw.scs
Reading file:  /pkg/xfab/XKIT/xh018/cadence/v8_0/spectre/v8_0_1/lpmos/models/dio/dphnwa.scs
Reading file:  /pkg/xfab/XKIT/xh018/cadence/v8_0/spectre/v8_0_1/lpmos/models/dio/dhpw.scs
Reading file:  /pkg/xfab/XKIT/xh018/cadence/v8_0/spectre/v8_0_1/lpmos/models/dio/dhnw.scs
Reading file:  /pkg/xfab/XKIT/xh018/cadence/v8_0/spectre/v8_0_1/lpmos/models/dio/dndf.scs
Reading file:  /pkg/xfab/XKIT/xh018/cadence/v8_0/spectre/v8_0_1/lpmos/models/dio/dpdwhn.scs
Reading file:  /pkg/xfab/XKIT/xh018/cadence/v8_0/spectre/v8_0_1/lpmos/models/dio/dwhn.scs
Reading file:  /pkg/xfab/XKIT/xh018/cadence/v8_0/spectre/v8_0_1/lpmos/models/dio/dpwhn.scs
Reading file:  /pkg/xfab/XKIT/xh018/cadence/v8_0/spectre/v8_0_1/lpmos/models/dio/dpndf.scs
Reading file:  /pkg/xfab/XKIT/xh018/cadence/v8_0/spectre/v8_0_1/lpmos/models/dio/dpdddnw.scs
Reading file:  /pkg/xfab/XKIT/xh018/cadence/v8_0/spectre/v8_0_1/lpmos/models/dio/ddpldnw.scs
Reading file:  /pkg/xfab/XKIT/xh018/cadence/v8_0/spectre/v8_0_1/lpmos/models/dio/dn3dpl.scs
Reading file:  /pkg/xfab/XKIT/xh018/cadence/v8_0/spectre/v8_0_1/lpmos/models/dio/dbn.scs
Reading file:  /pkg/xfab/XKIT/xh018/cadence/v8_0/spectre/v8_0_1/lpmos/models/dio/dpol.scs
Reading file:  /pkg/xfab/XKIT/xh018/cadence/v8_0/spectre/v8_0_1/lpmos/models/dio/dnpdd_scr.scs
Reading file:  /pkg/xfab/XKIT/xh018/cadence/v8_0/spectre/v8_0_1/lpmos/models/dio/dpdd_scr.scs
Reading file:  /pkg/xfab/XKIT/xh018/cadence/v8_0/spectre/v8_0_1/lpmos/models/dio/dsb.scs
Reading file:  /pkg/xfab/XKIT/xh018/cadence/v8_0/spectre/v8_0_1/lpmos/models/dio/dsba.scs
Reading file:  /pkg/xfab/XKIT/xh018/cadence/v8_0/spectre/v8_0_1/lpmos/models/dio/dsba_qp1.scs
Reading file:  /pkg/xfab/XKIT/xh018/cadence/v8_0/spectre/v8_0_1/lpmos/models/dio/dnp20.scs
Reading file:  /pkg/xfab/XKIT/xh018/cadence/v8_0/spectre/v8_0_1/lpmos/models/dio/dpp20.scs
Reading file:  /pkg/xfab/XKIT/xh018/cadence/v8_0/spectre/v8_0_1/lpmos/models/dio/dn3sci.scs
Reading file:  /pkg/xfab/XKIT/xh018/cadence/v8_0/spectre/v8_0_1/lpmos/models/dio/dscidnwmv.scs
Reading file:  /pkg/xfab/XKIT/xh018/cadence/v8_0/spectre/v8_0_1/lpmos/mos.scs
Reading file:  /pkg/xfab/XKIT/xh018/cadence/v8_0/spectre/v8_0_1/lpmos/models/mos/wz_mos.scs
Reading file:  /pkg/xfab/XKIT/xh018/cadence/v8_0/spectre/v8_0_1/lpmos/models/mos/ne.scs
Reading file:  /pkg/xfab/XKIT/xh018/cadence/v8_0/spectre/v8_0_1/lpmos/models/mos/nei.scs
Reading file:  /pkg/xfab/XKIT/xh018/cadence/v8_0/spectre/v8_0_1/lpmos/models/mos/nei_6.scs
Reading file:  /pkg/xfab/XKIT/xh018/cadence/v8_0/spectre/v8_0_1/lpmos/models/mos/nei_m_6.scs
Reading file:  /pkg/xfab/XKIT/xh018/cadence/v8_0/spectre/v8_0_1/lpmos/models/mos/pe.scs
Reading file:  /pkg/xfab/XKIT/xh018/cadence/v8_0/spectre/v8_0_1/lpmos/models/mos/pe_5.scs
Reading file:  /pkg/xfab/XKIT/xh018/cadence/v8_0/spectre/v8_0_1/lpmos/models/mos/pei.scs
Reading file:  /pkg/xfab/XKIT/xh018/cadence/v8_0/spectre/v8_0_1/lpmos/models/mos/pei_5.scs
Reading file:  /pkg/xfab/XKIT/xh018/cadence/v8_0/spectre/v8_0_1/lpmos/models/mos/pei_m_5.scs
Reading file:  /pkg/xfab/XKIT/xh018/cadence/v8_0/spectre/v8_0_1/lpmos/models/mos/nel.scs
Reading file:  /pkg/xfab/XKIT/xh018/cadence/v8_0/spectre/v8_0_1/lpmos/models/mos/neli.scs
Reading file:  /pkg/xfab/XKIT/xh018/cadence/v8_0/spectre/v8_0_1/lpmos/models/mos/neli_6.scs
Reading file:  /pkg/xfab/XKIT/xh018/cadence/v8_0/spectre/v8_0_1/lpmos/models/mos/neli_m_6.scs
Reading file:  /pkg/xfab/XKIT/xh018/cadence/v8_0/spectre/v8_0_1/lpmos/models/mos/pel.scs
Reading file:  /pkg/xfab/XKIT/xh018/cadence/v8_0/spectre/v8_0_1/lpmos/models/mos/pel_5.scs
Reading file:  /pkg/xfab/XKIT/xh018/cadence/v8_0/spectre/v8_0_1/lpmos/models/mos/peli.scs
Reading file:  /pkg/xfab/XKIT/xh018/cadence/v8_0/spectre/v8_0_1/lpmos/models/mos/peli_5.scs
Reading file:  /pkg/xfab/XKIT/xh018/cadence/v8_0/spectre/v8_0_1/lpmos/models/mos/peli_m_5.scs
Reading file:  /pkg/xfab/XKIT/xh018/cadence/v8_0/spectre/v8_0_1/lpmos/models/mos/nn3.scs
Reading file:  /pkg/xfab/XKIT/xh018/cadence/v8_0/spectre/v8_0_1/lpmos/models/mos/ne3.scs
Reading file:  /pkg/xfab/XKIT/xh018/cadence/v8_0/spectre/v8_0_1/lpmos/models/mos/ne3i.scs
Reading file:  /pkg/xfab/XKIT/xh018/cadence/v8_0/spectre/v8_0_1/lpmos/models/mos/ne3i_6.scs
Reading file:  /pkg/xfab/XKIT/xh018/cadence/v8_0/spectre/v8_0_1/lpmos/models/mos/ne3i_m_6.scs
Reading file:  /pkg/xfab/XKIT/xh018/cadence/v8_0/spectre/v8_0_1/lpmos/models/mos/pe3.scs
Reading file:  /pkg/xfab/XKIT/xh018/cadence/v8_0/spectre/v8_0_1/lpmos/models/mos/pe3_5.scs
Reading file:  /pkg/xfab/XKIT/xh018/cadence/v8_0/spectre/v8_0_1/lpmos/models/mos/pe3i.scs
Reading file:  /pkg/xfab/XKIT/xh018/cadence/v8_0/spectre/v8_0_1/lpmos/models/mos/pe3i_5.scs
Reading file:  /pkg/xfab/XKIT/xh018/cadence/v8_0/spectre/v8_0_1/lpmos/models/mos/pe3i_m_5.scs
Reading file:  /pkg/xfab/XKIT/xh018/cadence/v8_0/spectre/v8_0_1/lpmos/models/mos/pe3ln.scs
Reading file:  /pkg/xfab/XKIT/xh018/cadence/v8_0/spectre/v8_0_1/lpmos/models/mos/pe3ln_5.scs
Reading file:  /pkg/xfab/XKIT/xh018/cadence/v8_0/spectre/v8_0_1/lpmos/models/mos/pe3lni.scs
Reading file:  /pkg/xfab/XKIT/xh018/cadence/v8_0/spectre/v8_0_1/lpmos/models/mos/pe3lni_5.scs
Reading file:  /pkg/xfab/XKIT/xh018/cadence/v8_0/spectre/v8_0_1/lpmos/models/mos/pe3lni_m_5.scs
Reading file:  /pkg/xfab/XKIT/xh018/cadence/v8_0/spectre/v8_0_1/lpmos/models/mos/nd3.scs
Reading file:  /pkg/xfab/XKIT/xh018/cadence/v8_0/spectre/v8_0_1/lpmos/models/mos/nd3_mos1.scs
Reading file:  /pkg/xfab/XKIT/xh018/cadence/v8_0/spectre/v8_0_1/lpmos/models/mos/nd3_mos2.scs
Reading file:  /pkg/xfab/XKIT/xh018/cadence/v8_0/spectre/v8_0_1/lpmos/models/mos/nd3i.scs
Reading file:  /pkg/xfab/XKIT/xh018/cadence/v8_0/spectre/v8_0_1/lpmos/models/mos/nd3i_mos1.scs
Reading file:  /pkg/xfab/XKIT/xh018/cadence/v8_0/spectre/v8_0_1/lpmos/models/mos/nd3i_mos2.scs
Reading file:  /pkg/xfab/XKIT/xh018/cadence/v8_0/spectre/v8_0_1/lpmos/models/mos/nd3i_6.scs
Reading file:  /pkg/xfab/XKIT/xh018/cadence/v8_0/spectre/v8_0_1/lpmos/models/mos/nd3i_m_6.scs
Reading file:  /pkg/xfab/XKIT/xh018/cadence/v8_0/spectre/v8_0_1/lpmos/models/mos/nelna.scs
Reading file:  /pkg/xfab/XKIT/xh018/cadence/v8_0/spectre/v8_0_1/lpmos/models/mos/nelnai.scs
Reading file:  /pkg/xfab/XKIT/xh018/cadence/v8_0/spectre/v8_0_1/lpmos/models/mos/nelnai_6.scs
Reading file:  /pkg/xfab/XKIT/xh018/cadence/v8_0/spectre/v8_0_1/lpmos/models/mos/nelnai_m_6.scs
Reading file:  /pkg/xfab/XKIT/xh018/cadence/v8_0/spectre/v8_0_1/lpmos/models/mos/ne3lna.scs
Reading file:  /pkg/xfab/XKIT/xh018/cadence/v8_0/spectre/v8_0_1/lpmos/models/mos/ne3lnai.scs
Reading file:  /pkg/xfab/XKIT/xh018/cadence/v8_0/spectre/v8_0_1/lpmos/models/mos/ne3lnai_6.scs
Reading file:  /pkg/xfab/XKIT/xh018/cadence/v8_0/spectre/v8_0_1/lpmos/models/mos/ne3lnai_m_6.scs
Reading file:  /pkg/xfab/XKIT/xh018/cadence/v8_0/spectre/v8_0_1/lpmos/models/mos/pe3lna.scs
Reading file:  /pkg/xfab/XKIT/xh018/cadence/v8_0/spectre/v8_0_1/lpmos/models/mos/pe3lna_5.scs
Reading file:  /pkg/xfab/XKIT/xh018/cadence/v8_0/spectre/v8_0_1/lpmos/models/mos/pe3lnai.scs
Reading file:  /pkg/xfab/XKIT/xh018/cadence/v8_0/spectre/v8_0_1/lpmos/models/mos/pe3lnai_5.scs
Reading file:  /pkg/xfab/XKIT/xh018/cadence/v8_0/spectre/v8_0_1/lpmos/models/mos/pe3lnai_m_5.scs
Reading file:  /pkg/xfab/XKIT/xh018/cadence/v8_0/spectre/v8_0_1/lpmos/models/mos/nmma.scs
Reading file:  /pkg/xfab/XKIT/xh018/cadence/v8_0/spectre/v8_0_1/lpmos/models/mos/jf_nmma.scs
Reading file:  /pkg/xfab/XKIT/xh018/cadence/v8_0/spectre/v8_0_1/lpmos/models/mos/nmma_bjt.scs
Reading file:  /pkg/xfab/XKIT/xh018/cadence/v8_0/spectre/v8_0_1/lpmos/models/mos/pmma.scs
Reading file:  /pkg/xfab/XKIT/xh018/cadence/v8_0/spectre/v8_0_1/lpmos/models/mos/jf_pmma.scs
Reading file:  /pkg/xfab/XKIT/xh018/cadence/v8_0/spectre/v8_0_1/lpmos/models/mos/pmma_bjt.scs
Reading file:  /pkg/xfab/XKIT/xh018/cadence/v8_0/spectre/v8_0_1/lpmos/models/mos/nedi.scs
Reading file:  /pkg/xfab/XKIT/xh018/cadence/v8_0/spectre/v8_0_1/lpmos/models/mos/nedi_bjt.scs
Reading file:  /pkg/xfab/XKIT/xh018/cadence/v8_0/spectre/v8_0_1/lpmos/models/mos/nedia.scs
Reading file:  /pkg/xfab/XKIT/xh018/cadence/v8_0/spectre/v8_0_1/lpmos/models/mos/nedia_bjt.scs
Reading file:  /pkg/xfab/XKIT/xh018/cadence/v8_0/spectre/v8_0_1/lpmos/models/mos/ped2.scs
Reading file:  /pkg/xfab/XKIT/xh018/cadence/v8_0/spectre/v8_0_1/lpmos/models/mos/ped2_bjt.scs
Reading file:  /pkg/xfab/XKIT/xh018/cadence/v8_0/spectre/v8_0_1/lpmos/models/mos/ped.scs
Reading file:  /pkg/xfab/XKIT/xh018/cadence/v8_0/spectre/v8_0_1/lpmos/models/mos/ped_bjt.scs
Reading file:  /pkg/xfab/XKIT/xh018/cadence/v8_0/spectre/v8_0_1/lpmos/models/mos/nhv.scs
Reading file:  /pkg/xfab/XKIT/xh018/cadence/v8_0/spectre/v8_0_1/lpmos/models/mos/nhv_mos2.scs
Reading file:  /pkg/xfab/XKIT/xh018/cadence/v8_0/spectre/v8_0_1/lpmos/models/mos/nhv_bjt.scs
Reading file:  /pkg/xfab/XKIT/xh018/cadence/v8_0/spectre/v8_0_1/lpmos/models/mos/nhhv.scs
Reading file:  /pkg/xfab/XKIT/xh018/cadence/v8_0/spectre/v8_0_1/lpmos/models/mos/nhhv_mos2.scs
Reading file:  /pkg/xfab/XKIT/xh018/cadence/v8_0/spectre/v8_0_1/lpmos/models/mos/nhhv_bjt.scs
Reading file:  /pkg/xfab/XKIT/xh018/cadence/v8_0/spectre/v8_0_1/lpmos/models/mos/nmmc.scs
Reading file:  /pkg/xfab/XKIT/xh018/cadence/v8_0/spectre/v8_0_1/lpmos/models/mos/nmmc_mos2.scs
Reading file:  /pkg/xfab/XKIT/xh018/cadence/v8_0/spectre/v8_0_1/lpmos/models/mos/nmmc_bjt.scs
Reading file:  /pkg/xfab/XKIT/xh018/cadence/v8_0/spectre/v8_0_1/lpmos/models/mos/nmmd.scs
Reading file:  /pkg/xfab/XKIT/xh018/cadence/v8_0/spectre/v8_0_1/lpmos/models/mos/nmmd_mos2.scs
Reading file:  /pkg/xfab/XKIT/xh018/cadence/v8_0/spectre/v8_0_1/lpmos/models/mos/nmmd_bjt.scs
Reading file:  /pkg/xfab/XKIT/xh018/cadence/v8_0/spectre/v8_0_1/lpmos/models/mos/nmc.scs
Reading file:  /pkg/xfab/XKIT/xh018/cadence/v8_0/spectre/v8_0_1/lpmos/models/mos/nmc_mos2.scs
Reading file:  /pkg/xfab/XKIT/xh018/cadence/v8_0/spectre/v8_0_1/lpmos/models/mos/nmc_bjt.scs
Reading file:  /pkg/xfab/XKIT/xh018/cadence/v8_0/spectre/v8_0_1/lpmos/models/mos/nma.scs
Reading file:  /pkg/xfab/XKIT/xh018/cadence/v8_0/spectre/v8_0_1/lpmos/models/mos/nma_bjt.scs
Reading file:  /pkg/xfab/XKIT/xh018/cadence/v8_0/spectre/v8_0_1/lpmos/models/mos/phv.scs
Reading file:  /pkg/xfab/XKIT/xh018/cadence/v8_0/spectre/v8_0_1/lpmos/models/mos/phv_mos2.scs
Reading file:  /pkg/xfab/XKIT/xh018/cadence/v8_0/spectre/v8_0_1/lpmos/models/mos/phv_bjt.scs
Reading file:  /pkg/xfab/XKIT/xh018/cadence/v8_0/spectre/v8_0_1/lpmos/models/mos/phhv.scs
Reading file:  /pkg/xfab/XKIT/xh018/cadence/v8_0/spectre/v8_0_1/lpmos/models/mos/phhv_mos2.scs
Reading file:  /pkg/xfab/XKIT/xh018/cadence/v8_0/spectre/v8_0_1/lpmos/models/mos/phhv_bjt.scs
Reading file:  /pkg/xfab/XKIT/xh018/cadence/v8_0/spectre/v8_0_1/lpmos/models/mos/pmc.scs
Reading file:  /pkg/xfab/XKIT/xh018/cadence/v8_0/spectre/v8_0_1/lpmos/models/mos/pmc_mos2.scs
Reading file:  /pkg/xfab/XKIT/xh018/cadence/v8_0/spectre/v8_0_1/lpmos/models/mos/pmc_bjt.scs
Reading file:  /pkg/xfab/XKIT/xh018/cadence/v8_0/spectre/v8_0_1/lpmos/models/mos/pmmc.scs
Reading file:  /pkg/xfab/XKIT/xh018/cadence/v8_0/spectre/v8_0_1/lpmos/models/mos/pmmc_mos2.scs
Reading file:  /pkg/xfab/XKIT/xh018/cadence/v8_0/spectre/v8_0_1/lpmos/models/mos/pmmc_bjt.scs
Reading file:  /pkg/xfab/XKIT/xh018/cadence/v8_0/spectre/v8_0_1/lpmos/models/mos/pma.scs
Reading file:  /pkg/xfab/XKIT/xh018/cadence/v8_0/spectre/v8_0_1/lpmos/models/mos/pma_bjt.scs
Reading file:  /pkg/xfab/XKIT/xh018/cadence/v8_0/spectre/v8_0_1/lpmos/models/mos/pmb.scs
Reading file:  /pkg/xfab/XKIT/xh018/cadence/v8_0/spectre/v8_0_1/lpmos/models/mos/nesvt.scs
Reading file:  /pkg/xfab/XKIT/xh018/cadence/v8_0/spectre/v8_0_1/lpmos/models/mos/nesvti.scs
Reading file:  /pkg/xfab/XKIT/xh018/cadence/v8_0/spectre/v8_0_1/lpmos/models/mos/nesvti_6.scs
Reading file:  /pkg/xfab/XKIT/xh018/cadence/v8_0/spectre/v8_0_1/lpmos/models/mos/nesvti_m_6.scs
Reading file:  /pkg/xfab/XKIT/xh018/cadence/v8_0/spectre/v8_0_1/lpmos/models/mos/pesvt.scs
Reading file:  /pkg/xfab/XKIT/xh018/cadence/v8_0/spectre/v8_0_1/lpmos/models/mos/pesvt_5.scs
Reading file:  /pkg/xfab/XKIT/xh018/cadence/v8_0/spectre/v8_0_1/lpmos/models/mos/pesvti.scs
Reading file:  /pkg/xfab/XKIT/xh018/cadence/v8_0/spectre/v8_0_1/lpmos/models/mos/pesvti_5.scs
Reading file:  /pkg/xfab/XKIT/xh018/cadence/v8_0/spectre/v8_0_1/lpmos/models/mos/pesvti_m_5.scs
Reading file:  /pkg/xfab/XKIT/xh018/cadence/v8_0/spectre/v8_0_1/lpmos/models/mos/nhvd.scs
Reading file:  /pkg/xfab/XKIT/xh018/cadence/v8_0/spectre/v8_0_1/lpmos/models/mos/nhvd_bjt.scs
Reading file:  /pkg/xfab/XKIT/xh018/cadence/v8_0/spectre/v8_0_1/lpmos/models/mos/nhhvd.scs
Reading file:  /pkg/xfab/XKIT/xh018/cadence/v8_0/spectre/v8_0_1/lpmos/models/mos/nhhvd_bjt.scs
Reading file:  /pkg/xfab/XKIT/xh018/cadence/v8_0/spectre/v8_0_1/lpmos/photo.scs
Reading file:  /pkg/xfab/XKIT/xh018/cadence/v8_0/spectre/v8_0_1/lpmos/models/photo/tm_pho.scs
Reading file:  /pkg/xfab/XKIT/xh018/cadence/v8_0/spectre/v8_0_1/lpmos/models/photo/dphoa.scs
Reading file:  /pkg/xfab/XKIT/xh018/cadence/v8_0/spectre/v8_0_1/lpmos/models/photo/dpho.va
Reading link:  /pkg/cadence/installs/SPECTRE181/tools.lnx86/spectre/etc/ahdl/constants.h
Reading file:  /pkg/cadence/installs/SPECTRE181/tools.lnx86/spectre/etc/ahdl/constants.vams
Reading link:  /pkg/cadence/installs/SPECTRE181/tools.lnx86/spectre/etc/ahdl/discipline.h
Reading file:  /pkg/cadence/installs/SPECTRE181/tools.lnx86/spectre/etc/ahdl/disciplines.vams
Reading file:  /pkg/xfab/XKIT/xh018/cadence/v8_0/spectre/v8_0_1/lpmos/models/photo/dphob.scs
Reading file:  /pkg/xfab/XKIT/xh018/cadence/v8_0/spectre/v8_0_1/lpmos/models/photo/dphoc.scs
Reading file:  /pkg/xfab/XKIT/xh018/cadence/v8_0/spectre/v8_0_1/lpmos/models/photo/iphoto_uv.va
Reading file:  /pkg/xfab/XKIT/xh018/cadence/v8_0/spectre/v8_0_1/lpmos/models/photo/dphoc_cat.scs
Reading file:  /pkg/xfab/XKIT/xh018/cadence/v8_0/spectre/v8_0_1/lpmos/models/photo/dphoc0.scs
Reading file:  /pkg/xfab/XKIT/xh018/cadence/v8_0/spectre/v8_0_1/lpmos/models/photo/dphoc0_cat.scs
Reading file:  /pkg/xfab/XKIT/xh018/cadence/v8_0/spectre/v8_0_1/lpmos/models/photo/dphocfp.scs
Reading file:  /pkg/xfab/XKIT/xh018/cadence/v8_0/spectre/v8_0_1/lpmos/models/photo/dphocfp_cat.scs
Reading file:  /pkg/xfab/XKIT/xh018/cadence/v8_0/spectre/v8_0_1/lpmos/models/photo/dphod.scs
Reading file:  /pkg/xfab/XKIT/xh018/cadence/v8_0/spectre/v8_0_1/lpmos/models/photo/dphod_an1.scs
Reading file:  /pkg/xfab/XKIT/xh018/cadence/v8_0/spectre/v8_0_1/lpmos/models/photo/dphod_an2.scs
Reading file:  /pkg/xfab/XKIT/xh018/cadence/v8_0/spectre/v8_0_1/lpmos/models/photo/dphod0.scs
Reading file:  /pkg/xfab/XKIT/xh018/cadence/v8_0/spectre/v8_0_1/lpmos/models/photo/dphod0_an1.scs
Reading file:  /pkg/xfab/XKIT/xh018/cadence/v8_0/spectre/v8_0_1/lpmos/models/photo/dphod0_an2.scs
Reading file:  /pkg/xfab/XKIT/xh018/cadence/v8_0/spectre/v8_0_1/lpmos/models/photo/dphodfp.scs
Reading file:  /pkg/xfab/XKIT/xh018/cadence/v8_0/spectre/v8_0_1/lpmos/models/photo/dphodfp_an1.scs
Reading file:  /pkg/xfab/XKIT/xh018/cadence/v8_0/spectre/v8_0_1/lpmos/models/photo/dphodfp_an2.scs
Reading file:  /pkg/xfab/XKIT/xh018/cadence/v8_0/spectre/v8_0_1/lpmos/models/photo/dspada.scs
Reading file:  /pkg/xfab/XKIT/xh018/cadence/v8_0/spectre/v8_0_1/lpmos/models/photo/ispad.va
Reading file:  /pkg/xfab/XKIT/xh018/cadence/v8_0/spectre/v8_0_1/lpmos/models/photo/dspada_cat.scs
Reading file:  /pkg/xfab/XKIT/xh018/cadence/v8_0/spectre/v8_0_1/lpmos/models/photo/dspada0.scs
Reading file:  /pkg/xfab/XKIT/xh018/cadence/v8_0/spectre/v8_0_1/lpmos/models/photo/dapda.scs
Reading file:  /pkg/xfab/XKIT/xh018/cadence/v8_0/spectre/v8_0_1/lpmos/models/photo/iphoto_apd.va
Reading file:  /pkg/xfab/XKIT/xh018/cadence/v8_0/spectre/v8_0_1/lpmos/models/photo/dapda_cat.scs
Reading file:  /pkg/xfab/XKIT/xh018/cadence/v8_0/spectre/v8_0_1/lpmos/models/photo/dapda0.scs
Reading file:  /pkg/xfab/XKIT/xh018/cadence/v8_0/spectre/v8_0_1/lpmos/res.scs
Reading file:  /pkg/xfab/XKIT/xh018/cadence/v8_0/spectre/v8_0_1/lpmos/models/res/ws_res.scs
Reading file:  /pkg/xfab/XKIT/xh018/cadence/v8_0/spectre/v8_0_1/lpmos/models/res/rdn.scs
Reading file:  /pkg/xfab/XKIT/xh018/cadence/v8_0/spectre/v8_0_1/lpmos/models/res/rdn_esd.scs
Reading file:  /pkg/xfab/XKIT/xh018/cadence/v8_0/spectre/v8_0_1/lpmos/models/res/rdp.scs
Reading file:  /pkg/xfab/XKIT/xh018/cadence/v8_0/spectre/v8_0_1/lpmos/models/res/rdp_io.scs
Reading file:  /pkg/xfab/XKIT/xh018/cadence/v8_0/spectre/v8_0_1/lpmos/models/res/rdp_esd.scs
Reading file:  /pkg/xfab/XKIT/xh018/cadence/v8_0/spectre/v8_0_1/lpmos/models/res/rnw.scs
Reading file:  /pkg/xfab/XKIT/xh018/cadence/v8_0/spectre/v8_0_1/lpmos/models/res/rnw_scr.scs
Reading file:  /pkg/xfab/XKIT/xh018/cadence/v8_0/spectre/v8_0_1/lpmos/models/res/rdn3.scs
Reading file:  /pkg/xfab/XKIT/xh018/cadence/v8_0/spectre/v8_0_1/lpmos/models/res/rdp3.scs
Reading file:  /pkg/xfab/XKIT/xh018/cadence/v8_0/spectre/v8_0_1/lpmos/models/res/rnw3.scs
Reading file:  /pkg/xfab/XKIT/xh018/cadence/v8_0/spectre/v8_0_1/lpmos/models/res/rnw3_scr.scs
Reading file:  /pkg/xfab/XKIT/xh018/cadence/v8_0/spectre/v8_0_1/lpmos/models/res/rdnwmv.scs
Reading file:  /pkg/xfab/XKIT/xh018/cadence/v8_0/spectre/v8_0_1/lpmos/models/res/rnp1.scs
Reading file:  /pkg/xfab/XKIT/xh018/cadence/v8_0/spectre/v8_0_1/lpmos/models/res/rnp1_3.scs
Reading file:  /pkg/xfab/XKIT/xh018/cadence/v8_0/spectre/v8_0_1/lpmos/models/res/rpp1.scs
Reading file:  /pkg/xfab/XKIT/xh018/cadence/v8_0/spectre/v8_0_1/lpmos/models/res/rpp1_3.scs
Reading file:  /pkg/xfab/XKIT/xh018/cadence/v8_0/spectre/v8_0_1/lpmos/models/res/rpp1s.scs
Reading file:  /pkg/xfab/XKIT/xh018/cadence/v8_0/spectre/v8_0_1/lpmos/models/res/rpp1s_3.scs
Reading file:  /pkg/xfab/XKIT/xh018/cadence/v8_0/spectre/v8_0_1/lpmos/models/res/rnp1h.scs
Reading file:  /pkg/xfab/XKIT/xh018/cadence/v8_0/spectre/v8_0_1/lpmos/models/res/rnp1h_3.scs
Reading file:  /pkg/xfab/XKIT/xh018/cadence/v8_0/spectre/v8_0_1/lpmos/models/res/rpp1k1.scs
Reading file:  /pkg/xfab/XKIT/xh018/cadence/v8_0/spectre/v8_0_1/lpmos/models/res/rpp1k1_3.scs
Reading file:  /pkg/xfab/XKIT/xh018/cadence/v8_0/spectre/v8_0_1/lpmos/models/res/rctdn.scs
Reading file:  /pkg/xfab/XKIT/xh018/cadence/v8_0/spectre/v8_0_1/lpmos/models/res/rctdp.scs
Reading file:  /pkg/xfab/XKIT/xh018/cadence/v8_0/spectre/v8_0_1/lpmos/models/res/rctp1.scs
Reading file:  /pkg/xfab/XKIT/xh018/cadence/v8_0/spectre/v8_0_1/lpmos/models/res/rsildn.scs
Reading file:  /pkg/xfab/XKIT/xh018/cadence/v8_0/spectre/v8_0_1/lpmos/models/res/rsildp.scs
Reading file:  /pkg/xfab/XKIT/xh018/cadence/v8_0/spectre/v8_0_1/lpmos/models/res/rsilnp1.scs
Reading file:  /pkg/xfab/XKIT/xh018/cadence/v8_0/spectre/v8_0_1/lpmos/models/res/rsilpp1.scs
Reading file:  /pkg/xfab/XKIT/xh018/cadence/v8_0/spectre/v8_0_1/lpmos/models/res/rsbdn.scs
Reading file:  /pkg/xfab/XKIT/xh018/cadence/v8_0/spectre/v8_0_1/lpmos/models/res/rsbdp.scs
Reading file:  /pkg/xfab/XKIT/xh018/cadence/v8_0/spectre/v8_0_1/lpmos/models/res/rsbdn3.scs
Reading file:  /pkg/xfab/XKIT/xh018/cadence/v8_0/spectre/v8_0_1/lpmos/models/res/rsbdp3.scs
Reading file:  /pkg/xfab/XKIT/xh018/cadence/v8_0/spectre/v8_0_1/lpmos/models/res/rsbnp1.scs
Reading file:  /pkg/xfab/XKIT/xh018/cadence/v8_0/spectre/v8_0_1/lpmos/models/res/rsbpp1.scs
Reading file:  /pkg/xfab/XKIT/xh018/cadence/v8_0/spectre/v8_0_1/lpmos/models/res/rsbpp1k1.scs
Reading file:  /pkg/xfab/XKIT/xh018/cadence/v8_0/spectre/v8_0_1/lpmos/models/res/rm1.scs
Reading file:  /pkg/xfab/XKIT/xh018/cadence/v8_0/spectre/v8_0_1/lpmos/models/res/rm2.scs
Reading file:  /pkg/xfab/XKIT/xh018/cadence/v8_0/spectre/v8_0_1/lpmos/models/res/rm3.scs
Reading file:  /pkg/xfab/XKIT/xh018/cadence/v8_0/spectre/v8_0_1/lpmos/models/res/rm4.scs
Reading file:  /pkg/xfab/XKIT/xh018/cadence/v8_0/spectre/v8_0_1/lpmos/models/res/rm5.scs
Reading file:  /pkg/xfab/XKIT/xh018/cadence/v8_0/spectre/v8_0_1/lpmos/models/res/rmtp.scs
Reading file:  /pkg/xfab/XKIT/xh018/cadence/v8_0/spectre/v8_0_1/lpmos/models/res/rmtpl.scs
Reading file:  /pkg/xfab/XKIT/xh018/cadence/v8_0/spectre/v8_0_1/lpmos/models/res/pfuse.scs
Reading file:  /pkg/xfab/XKIT/xh018/cadence/v8_0/spectre/v8_0_1/lpmos/models/res/s_res.scs
Time for NDB Parsing: CPU = 473.343 ms, elapsed = 558.094 ms.
Time accumulated: CPU = 544.915 ms, elapsed = 558.108 ms.
Peak resident memory used = 70.5 Mbytes.

Time for Elaboration: CPU = 53.736 ms, elapsed = 53.7469 ms.
Time accumulated: CPU = 598.814 ms, elapsed = 612.016 ms.
Peak resident memory used = 79.9 Mbytes.


Warning from spectre during hierarchy flattening.
    WARNING (SPECTRE-17101): The value 'psf' specified using the 'checklimitdest' option will no longer be supported in future releases.


Time for EDB Visiting: CPU = 2.285 ms, elapsed = 2.28405 ms.
Time accumulated: CPU = 601.335 ms, elapsed = 614.533 ms.
Peak resident memory used = 80.6 Mbytes.


Global user options:
         psfversion = 1.1.0
            vabstol = 1e-06
            iabstol = 1e-12
               temp = 27
           homotopy = 7
              limit = delta
         compatible = spice2
               gmin = 1e-12
             rforce = 1
           maxnotes = 5
           maxwarns = 5
             digits = 5
               cols = 80
             pivrel = 0.001
           sensfile = ../psf/sens.output
     checklimitdest = psf
               save = allpub
             reltol = 0.0001
               tnom = 27
             scalem = 1
              scale = 1

Scoped user options:

Circuit inventory:
              nodes 14
             iprobe 1     
            bsim3v3 9     
          capacitor 6     
           resistor 8     
            vsource 1     

Analysis and control statement inventory:
                 dc 2     
               info 7     

Output statements:
             .probe 0     
           .measure 0     
               save 1     

Time for parsing: CPU = 5.369 ms, elapsed = 9.74894 ms.
Time accumulated: CPU = 606.883 ms, elapsed = 624.462 ms.
Peak resident memory used = 82.4 Mbytes.

~~~~~~~~~~~~~~~~~~~~~~
Pre-Simulation Summary
~~~~~~~~~~~~~~~~~~~~~~
~~~~~~~~~~~~~~~~~~~~~~

******************
DC Analysis `dcOp'
******************

Opening the PSF file ../psf/dcOp.dc ...
Important parameter values:
    reltol = 100e-06
    abstol(V) = 1 uV
    abstol(I) = 1 pA
    temp = 27 C
    tnom = 27 C
    tempeffects = all
    gmindc = 1 pS

Maximum value achieved for any signal of each quantity: 
V: V(net81) = 3.3 V
I: I(V0:p) = 40.35 uA
Convergence achieved in 18 iterations.
DC simulation time: CPU = 5.188 ms, elapsed = 7.64918 ms.
Total time required for dc analysis `dcOp': CPU = 5.296 ms, elapsed = 7.75003 ms.
Time accumulated: CPU = 623.524 ms, elapsed = 643.563 ms.
Peak resident memory used = 83.7 Mbytes.

dcOpInfo: writing operating point information to rawfile.

Opening the PSF file ../psf/dcOpInfo.info ...

********************************
DC Analysis `dc': vdd = (0 -> 4)
********************************

Opening the PSF file ../psf/dc.dc ...
Important parameter values:
    reltol = 100e-06
    abstol(V) = 1 uV
    abstol(I) = 1 pA
    temp = 27 C
    tnom = 27 C
    tempeffects = all
    gmindc = 1 pS

Notice from spectre at vdd = 80e-03 during DC analysis `dc'.
    GminDC = 1 pS is large enough to noticeably affect the DC solution.
        dV(M43.m1:int_s) = 8.36503 mV
        Use the `gmin_check' option to eliminate or expand this report.
Notice from spectre at vdd = 160e-03 during DC analysis `dc'.
    GminDC = 1 pS is large enough to noticeably affect the DC solution.
        dV(M51.m1:int_d) = 27.1446 mV
        Use the `gmin_check' option to eliminate or expand this report.

    dc: vdd = 160e-03        (4 %), step = 80e-03          (2 %)

Notice from spectre at vdd = 240e-03 during DC analysis `dc'.
    GminDC = 1 pS is large enough to noticeably affect the DC solution.
        dV(M28.m1:int_d) = -17.7888 mV
        Use the `gmin_check' option to eliminate or expand this report.

    dc: vdd = 240e-03        (6 %), step = 80e-03          (2 %)

Notice from spectre at vdd = 320e-03 during DC analysis `dc'.
    GminDC = 1 pS is large enough to noticeably affect the DC solution.
        dV(M43.m1:int_s) = -36.8478 mV
        Use the `gmin_check' option to eliminate or expand this report.

    dc: vdd = 320e-03        (8 %), step = 80e-03          (2 %)

Notice from spectre at vdd = 400e-03 during DC analysis `dc'.
    GminDC = 1 pS is large enough to noticeably affect the DC solution.
        Further occurrences of this notice will be suppressed.
        dV(M43.m1:int_s) = -9.63394 mV
        Further occurrences of this notice will be suppressed.
        Use the `gmin_check' option to eliminate or expand this report.
        Further occurrences of this notice will be suppressed.

    dc: vdd = 400e-03       (10 %), step = 80e-03          (2 %)
    dc: vdd = 480e-03       (12 %), step = 80e-03          (2 %)
    dc: vdd = 560e-03       (14 %), step = 80e-03          (2 %)
    dc: vdd = 640e-03       (16 %), step = 80e-03          (2 %)
    dc: vdd = 720e-03       (18 %), step = 80e-03          (2 %)
    dc: vdd = 800e-03       (20 %), step = 80e-03          (2 %)
    dc: vdd = 880e-03       (22 %), step = 80e-03          (2 %)
    dc: vdd = 960e-03       (24 %), step = 80e-03          (2 %)
    dc: vdd = 1.04          (26 %), step = 80e-03          (2 %)
    dc: vdd = 1.12          (28 %), step = 80e-03          (2 %)
    dc: vdd = 1.2           (30 %), step = 80e-03          (2 %)
    dc: vdd = 1.28          (32 %), step = 80e-03          (2 %)
    dc: vdd = 1.36          (34 %), step = 80e-03          (2 %)
    dc: vdd = 1.44          (36 %), step = 80e-03          (2 %)
    dc: vdd = 1.52          (38 %), step = 80e-03          (2 %)
    dc: vdd = 1.6           (40 %), step = 80e-03          (2 %)
    dc: vdd = 1.68          (42 %), step = 80e-03          (2 %)
    dc: vdd = 1.76          (44 %), step = 80e-03          (2 %)
    dc: vdd = 1.84          (46 %), step = 80e-03          (2 %)
    dc: vdd = 1.92          (48 %), step = 80e-03          (2 %)
    dc: vdd = 2             (50 %), step = 80e-03          (2 %)
    dc: vdd = 2.08          (52 %), step = 80e-03          (2 %)
    dc: vdd = 2.16          (54 %), step = 80e-03          (2 %)
    dc: vdd = 2.24          (56 %), step = 80e-03          (2 %)
    dc: vdd = 2.32          (58 %), step = 80e-03          (2 %)
    dc: vdd = 2.4           (60 %), step = 80e-03          (2 %)
    dc: vdd = 2.48          (62 %), step = 80e-03          (2 %)
    dc: vdd = 2.56          (64 %), step = 80e-03          (2 %)
    dc: vdd = 2.64          (66 %), step = 80e-03          (2 %)
    dc: vdd = 2.72          (68 %), step = 80e-03          (2 %)
Trying `homotopy = gmin'.

Notice from spectre at vdd = 2.8 during DC analysis `dc'.
    Bad pivoting is found during DC analysis. Option dc_pivot_check=yes is recommended for possible improvement of convergence.

    dc: vdd = 2.8           (70 %), step = 80e-03          (2 %)

Notice from spectre at vdd = 2.88 during DC analysis `dc'.
    Bad pivoting is found during DC analysis. Option dc_pivot_check=yes is recommended for possible improvement of convergence.

    dc: vdd = 2.88          (72 %), step = 80e-03          (2 %)

Notice from spectre at vdd = 2.96 during DC analysis `dc'.
    Bad pivoting is found during DC analysis. Option dc_pivot_check=yes is recommended for possible improvement of convergence.

    dc: vdd = 2.96          (74 %), step = 80e-03          (2 %)

Notice from spectre at vdd = 3.04 during DC analysis `dc'.
    Bad pivoting is found during DC analysis. Option dc_pivot_check=yes is recommended for possible improvement of convergence.

    dc: vdd = 3.04          (76 %), step = 80e-03          (2 %)

Notice from spectre at vdd = 3.12 during DC analysis `dc'.
    Bad pivoting is found during DC analysis. Option dc_pivot_check=yes is recommended for possible improvement of convergence.
        Further occurrences of this notice will be suppressed.

    dc: vdd = 3.12          (78 %), step = 80e-03          (2 %)
    dc: vdd = 3.2           (80 %), step = 80e-03          (2 %)
    dc: vdd = 3.28          (82 %), step = 80e-03          (2 %)
    dc: vdd = 3.36          (84 %), step = 80e-03          (2 %)
    dc: vdd = 3.44          (86 %), step = 80e-03          (2 %)
    dc: vdd = 3.52          (88 %), step = 80e-03          (2 %)
    dc: vdd = 3.6           (90 %), step = 80e-03          (2 %)
    dc: vdd = 3.68          (92 %), step = 80e-03          (2 %)
    dc: vdd = 3.76          (94 %), step = 80e-03          (2 %)
    dc: vdd = 3.84          (96 %), step = 80e-03          (2 %)
    dc: vdd = 3.92          (98 %), step = 80e-03          (2 %)
    dc: vdd = 4            (100 %), step = 80e-03          (2 %)

Maximum value achieved for any signal of each quantity: 
V: V(net81) = 4 V
I: I(V0:p) = 56.68 uA
DC simulation time: CPU = 137.565 ms, elapsed = 140.007 ms.

Notice from spectre at vdd = 4 during DC analysis `dc'.
    The value of parameter 'vdd' has been reset to the original value 3.3.

Total time required for dc analysis `dc': CPU = 137.627 ms, elapsed = 140.065 ms.
Time accumulated: CPU = 768.296 ms, elapsed = 793.189 ms.
Peak resident memory used = 84.4 Mbytes.


Notice from spectre.
    15 notices suppressed.

modelParameter: writing model parameter values to rawfile.

Opening the PSF file ../psf/modelParameter.info ...
element: writing instance parameter values to rawfile.

Opening the PSF file ../psf/element.info ...
outputParameter: writing output parameter values to rawfile.

Opening the PSF file ../psf/outputParameter.info ...
designParamVals: writing netlist parameters to rawfile.

Opening the PSFASCII file ../psf/designParamVals.info ...
primitives: writing primitives to rawfile.

Opening the PSFASCII file ../psf/primitives.info.primitives ...
subckts: writing subcircuits to rawfile.

Opening the PSFASCII file ../psf/subckts.info.subckts ...

Aggregate audit (4:32:50 PM, Thur Mar 25, 2021):
Time used: CPU = 814 ms, elapsed = 862 ms, util. = 94.4%.
Time spent in licensing: elapsed = 145 ms, percentage of total = 16.8%.
Peak memory used = 85.4 Mbytes.
Simulation started at: 4:32:50 PM, Thur Mar 25, 2021, ended at: 4:32:50 PM, Thur Mar 25, 2021, with elapsed time (wall clock): 862 ms.
spectre completes with 0 errors, 1 warning, and 13 notices.


********* LOG ENDS **************
**                             **
**                             **
********* LOG STARTS ************



Spectre (R) Circuit Simulator
Version 18.1.0.516.isr12 64bit -- 25 Oct 2019
Copyright (C) 1989-2019 Cadence Design Systems, Inc. All rights reserved worldwide. Cadence and Spectre are registered trademarks of Cadence Design Systems, Inc. All others are the property of their respective holders.

Includes RSA BSAFE(R) Cryptographic or Security Protocol Software from RSA Security, Inc.

User: ykhuang   Host: s2424   HostID: ED824314   PID: 11226
Memory  available: 49.0143 GB  physical: 67.2863 GB
Linux   : CentOS Linux release 7.9.2009 (Core)
CPU Type: Intel(R) Xeon(R) CPU E5-2630 v3 @ 2.40GHz
        Socket: Processors [Frequency] (Hyperthreaded Processor)
        0:       0 [1203.5] ( 16 ),  1 [1306.9] ( 17 ),  2 [1298.4] ( 18 )
                 3 [1200.3] ( 19 ),  4 [2372.2] ( 20 ),  5 [1798.8] ( 21 )
                 6 [1895.2] ( 22 ),  7 [1700.0] ( 23 )
        1:       8 [1392.5] ( 24 ),  9 [1200.1] ( 25 ), 10 [1238.1] ( 26 )
                11 [1385.3] ( 27 ), 12 [1544.2] ( 28 ), 13 [1398.6] ( 29 )
                14 [1214.4] ( 30 ), 15 [1200.0] ( 31 )
        
System load averages (1min, 5min, 15min) : 1.6 %, 1.2 %, 0.8 %
Hyperthreading is enabled


Simulating `input.scs' on s2424 at 4:32:48 PM, Thur Mar 25, 2021 (process id: 11226).
Current working directory: /home/ykhuang/research/Sim/Stimulator_TestBench/TB_Iref_imp/adexl/results/data/Interactive.4/23/Stimulator_TestBench:TB_Iref_imp:1/netlist
Command line:
    /pkg/cadence/installs/SPECTRE181/tools/bin/spectre -64 input.scs  \
        +escchars +log ../psf/spectre.out -format psfxl -raw ../psf  \
        +lqtimeout 900 -maxw 5 -maxn 5 -env ade -ahdllibdir  \
        /home/ykhuang/research/Sim/Stimulator_TestBench/TB_Iref_imp/adexl/results/data/Interactive.4/sharedData/Job8/ahdl/input.ahdlSimDB  \
        +logstatus

Loading /pkg/cadence/installs/SPECTRE181/tools.lnx86/cmi/lib/64bit/5.0/libinfineon_sh.so ...
Loading /pkg/cadence/installs/SPECTRE181/tools.lnx86/cmi/lib/64bit/5.0/libphilips_o_sh.so ...
Loading /pkg/cadence/installs/SPECTRE181/tools.lnx86/cmi/lib/64bit/5.0/libphilips_sh.so ...
Loading /pkg/cadence/installs/SPECTRE181/tools.lnx86/cmi/lib/64bit/5.0/libsparam_sh.so ...
Loading /pkg/cadence/installs/SPECTRE181/tools.lnx86/cmi/lib/64bit/5.0/libstmodels_sh.so ...
Reading file:  /home/ykhuang/research/Sim/Stimulator_TestBench/TB_Iref_imp/adexl/results/data/Interactive.4/23/Stimulator_TestBench:TB_Iref_imp:1/netlist/input.scs
Reading file:  /pkg/cadence/installs/SPECTRE181/tools.lnx86/spectre/etc/configs/spectre.cfg
Reading file:  /pkg/xfab/XKIT/xh018/cadence/v8_0/spectre/v8_0_1/lpmos/param.scs
Reading file:  /pkg/xfab/XKIT/xh018/cadence/v8_0/spectre/v8_0_1/lpmos/bip.scs
Reading file:  /pkg/xfab/XKIT/xh018/cadence/v8_0/spectre/v8_0_1/lpmos/models/bip/tm_bip.scs
Reading file:  /pkg/xfab/XKIT/xh018/cadence/v8_0/spectre/v8_0_1/lpmos/models/bip/qpva.scs
Reading file:  /pkg/xfab/XKIT/xh018/cadence/v8_0/spectre/v8_0_1/lpmos/models/bip/qpvb.scs
Reading file:  /pkg/xfab/XKIT/xh018/cadence/v8_0/spectre/v8_0_1/lpmos/models/bip/qpvc.scs
Reading file:  /pkg/xfab/XKIT/xh018/cadence/v8_0/spectre/v8_0_1/lpmos/models/bip/qpva3.scs
Reading file:  /pkg/xfab/XKIT/xh018/cadence/v8_0/spectre/v8_0_1/lpmos/models/bip/qpvb3.scs
Reading file:  /pkg/xfab/XKIT/xh018/cadence/v8_0/spectre/v8_0_1/lpmos/models/bip/qpvc3.scs
Reading file:  /pkg/xfab/XKIT/xh018/cadence/v8_0/spectre/v8_0_1/lpmos/models/bip/qnva.scs
Reading file:  /pkg/xfab/XKIT/xh018/cadence/v8_0/spectre/v8_0_1/lpmos/models/bip/qnvb.scs
Reading file:  /pkg/xfab/XKIT/xh018/cadence/v8_0/spectre/v8_0_1/lpmos/models/bip/qnvb_npn.scs
Reading file:  /pkg/xfab/XKIT/xh018/cadence/v8_0/spectre/v8_0_1/lpmos/models/bip/qnvb_pnp.scs
Reading file:  /pkg/xfab/XKIT/xh018/cadence/v8_0/spectre/v8_0_1/lpmos/models/bip/qnvc.scs
Reading file:  /pkg/xfab/XKIT/xh018/cadence/v8_0/spectre/v8_0_1/lpmos/models/bip/qnvc_npn.scs
Reading file:  /pkg/xfab/XKIT/xh018/cadence/v8_0/spectre/v8_0_1/lpmos/models/bip/qnvc_pnp.scs
Reading file:  /pkg/xfab/XKIT/xh018/cadence/v8_0/spectre/v8_0_1/lpmos/models/bip/qpvhscr.scs
Reading file:  /pkg/xfab/XKIT/xh018/cadence/v8_0/spectre/v8_0_1/lpmos/models/bip/qpvascr.scs
Reading file:  /pkg/xfab/XKIT/xh018/cadence/v8_0/spectre/v8_0_1/lpmos/models/bip/qpvhbscr.scs
Reading file:  /pkg/xfab/XKIT/xh018/cadence/v8_0/spectre/v8_0_1/lpmos/models/bip/qpv_pa.scs
Reading file:  /pkg/xfab/XKIT/xh018/cadence/v8_0/spectre/v8_0_1/lpmos/models/bip/qpv_pb.scs
Reading file:  /pkg/xfab/XKIT/xh018/cadence/v8_0/spectre/v8_0_1/lpmos/models/bip/qpv_pc.scs
Reading file:  /pkg/xfab/XKIT/xh018/cadence/v8_0/spectre/v8_0_1/lpmos/models/bip/qpv_pd.scs
Reading file:  /pkg/xfab/XKIT/xh018/cadence/v8_0/spectre/v8_0_1/lpmos/models/bip/qpv_pe.scs
Reading file:  /pkg/xfab/XKIT/xh018/cadence/v8_0/spectre/v8_0_1/lpmos/models/bip/qpv_pf.scs
Reading file:  /pkg/xfab/XKIT/xh018/cadence/v8_0/spectre/v8_0_1/lpmos/models/bip/qpl_pa.scs
Reading file:  /pkg/xfab/XKIT/xh018/cadence/v8_0/spectre/v8_0_1/lpmos/models/bip/qpl_pb.scs
Reading file:  /pkg/xfab/XKIT/xh018/cadence/v8_0/spectre/v8_0_1/lpmos/models/bip/qpl_pc.scs
Reading file:  /pkg/xfab/XKIT/xh018/cadence/v8_0/spectre/v8_0_1/lpmos/models/bip/qpl_pd.scs
Reading file:  /pkg/xfab/XKIT/xh018/cadence/v8_0/spectre/v8_0_1/lpmos/models/bip/qpl_pe.scs
Reading file:  /pkg/xfab/XKIT/xh018/cadence/v8_0/spectre/v8_0_1/lpmos/models/bip/qpl_pf.scs
Reading file:  /pkg/xfab/XKIT/xh018/cadence/v8_0/spectre/v8_0_1/lpmos/models/bip/qnl_pa.scs
Reading file:  /pkg/xfab/XKIT/xh018/cadence/v8_0/spectre/v8_0_1/lpmos/models/bip/qnl_pb.scs
Reading file:  /pkg/xfab/XKIT/xh018/cadence/v8_0/spectre/v8_0_1/lpmos/models/bip/qnl_pc.scs
Reading file:  /pkg/xfab/XKIT/xh018/cadence/v8_0/spectre/v8_0_1/lpmos/models/bip/qnl_pd.scs
Reading file:  /pkg/xfab/XKIT/xh018/cadence/v8_0/spectre/v8_0_1/lpmos/models/bip/qnl_pe.scs
Reading file:  /pkg/xfab/XKIT/xh018/cadence/v8_0/spectre/v8_0_1/lpmos/models/bip/qnl_pf.scs
Reading file:  /pkg/xfab/XKIT/xh018/cadence/v8_0/spectre/v8_0_1/lpmos/cap.scs
Reading file:  /pkg/xfab/XKIT/xh018/cadence/v8_0/spectre/v8_0_1/lpmos/models/cap/wp_cap.scs
Reading file:  /pkg/xfab/XKIT/xh018/cadence/v8_0/spectre/v8_0_1/lpmos/models/cap/csandwt3.scs
Reading file:  /pkg/xfab/XKIT/xh018/cadence/v8_0/spectre/v8_0_1/lpmos/models/cap/csandwt4.scs
Reading file:  /pkg/xfab/XKIT/xh018/cadence/v8_0/spectre/v8_0_1/lpmos/models/cap/csandwt5.scs
Reading file:  /pkg/xfab/XKIT/xh018/cadence/v8_0/spectre/v8_0_1/lpmos/models/cap/csf2p.scs
Reading file:  /pkg/xfab/XKIT/xh018/cadence/v8_0/spectre/v8_0_1/lpmos/models/cap/csf3p.scs
Reading file:  /pkg/xfab/XKIT/xh018/cadence/v8_0/spectre/v8_0_1/lpmos/models/cap/csf3.scs
Reading file:  /pkg/xfab/XKIT/xh018/cadence/v8_0/spectre/v8_0_1/lpmos/models/cap/csf4.scs
Reading file:  /pkg/xfab/XKIT/xh018/cadence/v8_0/spectre/v8_0_1/lpmos/models/cap/csf5.scs
Reading file:  /pkg/xfab/XKIT/xh018/cadence/v8_0/spectre/v8_0_1/lpmos/models/cap/csft4.scs
Reading file:  /pkg/xfab/XKIT/xh018/cadence/v8_0/spectre/v8_0_1/lpmos/models/cap/csft5.scs
Reading file:  /pkg/xfab/XKIT/xh018/cadence/v8_0/spectre/v8_0_1/lpmos/models/cap/csft6.scs
Reading file:  /pkg/xfab/XKIT/xh018/cadence/v8_0/spectre/v8_0_1/lpmos/models/cap/csf3a.scs
Reading file:  /pkg/xfab/XKIT/xh018/cadence/v8_0/spectre/v8_0_1/lpmos/models/cap/csf4a.scs
Reading file:  /pkg/xfab/XKIT/xh018/cadence/v8_0/spectre/v8_0_1/lpmos/models/cap/csf5a.scs
Reading file:  /pkg/xfab/XKIT/xh018/cadence/v8_0/spectre/v8_0_1/lpmos/models/cap/csft4a.scs
Reading file:  /pkg/xfab/XKIT/xh018/cadence/v8_0/spectre/v8_0_1/lpmos/models/cap/csft5a.scs
Reading file:  /pkg/xfab/XKIT/xh018/cadence/v8_0/spectre/v8_0_1/lpmos/models/cap/csft6a.scs
Reading file:  /pkg/xfab/XKIT/xh018/cadence/v8_0/spectre/v8_0_1/lpmos/models/cap/cmm3.scs
Reading file:  /pkg/xfab/XKIT/xh018/cadence/v8_0/spectre/v8_0_1/lpmos/models/cap/cmm4t.scs
Reading file:  /pkg/xfab/XKIT/xh018/cadence/v8_0/spectre/v8_0_1/lpmos/models/cap/cmm4.scs
Reading file:  /pkg/xfab/XKIT/xh018/cadence/v8_0/spectre/v8_0_1/lpmos/models/cap/cmm5t.scs
Reading file:  /pkg/xfab/XKIT/xh018/cadence/v8_0/spectre/v8_0_1/lpmos/models/cap/cmm6t.scs
Reading file:  /pkg/xfab/XKIT/xh018/cadence/v8_0/spectre/v8_0_1/lpmos/models/cap/cdmm4.scs
Reading file:  /pkg/xfab/XKIT/xh018/cadence/v8_0/spectre/v8_0_1/lpmos/models/cap/cdmm4t.scs
Reading file:  /pkg/xfab/XKIT/xh018/cadence/v8_0/spectre/v8_0_1/lpmos/models/cap/ctmm5.scs
Reading file:  /pkg/xfab/XKIT/xh018/cadence/v8_0/spectre/v8_0_1/lpmos/models/cap/ctmm5t.scs
Reading file:  /pkg/xfab/XKIT/xh018/cadence/v8_0/spectre/v8_0_1/lpmos/models/cap/cmmh3.scs
Reading file:  /pkg/xfab/XKIT/xh018/cadence/v8_0/spectre/v8_0_1/lpmos/models/cap/cmmh4t.scs
Reading file:  /pkg/xfab/XKIT/xh018/cadence/v8_0/spectre/v8_0_1/lpmos/models/cap/cmmh4.scs
Reading file:  /pkg/xfab/XKIT/xh018/cadence/v8_0/spectre/v8_0_1/lpmos/models/cap/cmmh5t.scs
Reading file:  /pkg/xfab/XKIT/xh018/cadence/v8_0/spectre/v8_0_1/lpmos/models/cap/cmmh6t.scs
Reading file:  /pkg/xfab/XKIT/xh018/cadence/v8_0/spectre/v8_0_1/lpmos/models/cap/cdmmh4.scs
Reading file:  /pkg/xfab/XKIT/xh018/cadence/v8_0/spectre/v8_0_1/lpmos/models/cap/cdmmh4t.scs
Reading file:  /pkg/xfab/XKIT/xh018/cadence/v8_0/spectre/v8_0_1/lpmos/models/cap/ctmmh5.scs
Reading file:  /pkg/xfab/XKIT/xh018/cadence/v8_0/spectre/v8_0_1/lpmos/models/cap/ctmmh5t.scs
Reading file:  /pkg/xfab/XKIT/xh018/cadence/v8_0/spectre/v8_0_1/lpmos/models/cap/mosvc.scs
Reading file:  /pkg/xfab/XKIT/xh018/cadence/v8_0/spectre/v8_0_1/lpmos/models/cap/mosvc_pmos.scs
Reading file:  /pkg/xfab/XKIT/xh018/cadence/v8_0/spectre/v8_0_1/lpmos/models/cap/mosvci.scs
Reading file:  /pkg/xfab/XKIT/xh018/cadence/v8_0/spectre/v8_0_1/lpmos/models/cap/mosvci_nmos.scs
Reading file:  /pkg/xfab/XKIT/xh018/cadence/v8_0/spectre/v8_0_1/lpmos/models/cap/mosvci_m.scs
Reading file:  /pkg/xfab/XKIT/xh018/cadence/v8_0/spectre/v8_0_1/lpmos/models/cap/mosvc3.scs
Reading file:  /pkg/xfab/XKIT/xh018/cadence/v8_0/spectre/v8_0_1/lpmos/models/cap/mosvc3_pmos.scs
Reading file:  /pkg/xfab/XKIT/xh018/cadence/v8_0/spectre/v8_0_1/lpmos/models/cap/mosvc3i.scs
Reading file:  /pkg/xfab/XKIT/xh018/cadence/v8_0/spectre/v8_0_1/lpmos/models/cap/mosvc3i_nmos.scs
Reading file:  /pkg/xfab/XKIT/xh018/cadence/v8_0/spectre/v8_0_1/lpmos/models/cap/mosvc3i_m.scs
Reading file:  /pkg/xfab/XKIT/xh018/cadence/v8_0/spectre/v8_0_1/lpmos/models/cap/cpod.scs
Reading file:  /pkg/xfab/XKIT/xh018/cadence/v8_0/spectre/v8_0_1/lpmos/models/cap/cpod_i.scs
Reading file:  /pkg/xfab/XKIT/xh018/cadence/v8_0/spectre/v8_0_1/lpmos/models/cap/cpodhv.scs
Reading file:  /pkg/xfab/XKIT/xh018/cadence/v8_0/spectre/v8_0_1/lpmos/models/cap/cpodhv_i.scs
Reading file:  /pkg/xfab/XKIT/xh018/cadence/v8_0/spectre/v8_0_1/lpmos/models/cap/cp1sub.scs
Reading file:  /pkg/xfab/XKIT/xh018/cadence/v8_0/spectre/v8_0_1/lpmos/models/cap/cp1suba.scs
Reading file:  /pkg/xfab/XKIT/xh018/cadence/v8_0/spectre/v8_0_1/lpmos/models/cap/cp1subp.scs
Reading file:  /pkg/xfab/XKIT/xh018/cadence/v8_0/spectre/v8_0_1/lpmos/models/cap/tag_25v.scs
Reading file:  /pkg/xfab/XKIT/xh018/cadence/v8_0/spectre/v8_0_1/lpmos/models/cap/tag_60v.scs
Reading file:  /pkg/xfab/XKIT/xh018/cadence/v8_0/spectre/v8_0_1/lpmos/dio.scs
Reading file:  /pkg/xfab/XKIT/xh018/cadence/v8_0/spectre/v8_0_1/lpmos/models/dio/tm_dio.scs
Reading file:  /pkg/xfab/XKIT/xh018/cadence/v8_0/spectre/v8_0_1/lpmos/models/dio/dn.scs
Reading file:  /pkg/xfab/XKIT/xh018/cadence/v8_0/spectre/v8_0_1/lpmos/models/dio/dp.scs
Reading file:  /pkg/xfab/XKIT/xh018/cadence/v8_0/spectre/v8_0_1/lpmos/models/dio/dnw.scs
Reading file:  /pkg/xfab/XKIT/xh018/cadence/v8_0/spectre/v8_0_1/lpmos/models/dio/dn3.scs
Reading file:  /pkg/xfab/XKIT/xh018/cadence/v8_0/spectre/v8_0_1/lpmos/models/dio/dnn3.scs
Reading file:  /pkg/xfab/XKIT/xh018/cadence/v8_0/spectre/v8_0_1/lpmos/models/dio/dp3.scs
Reading file:  /pkg/xfab/XKIT/xh018/cadence/v8_0/spectre/v8_0_1/lpmos/models/dio/dnw3.scs
Reading file:  /pkg/xfab/XKIT/xh018/cadence/v8_0/spectre/v8_0_1/lpmos/models/dio/ddnwmv.scs
Reading file:  /pkg/xfab/XKIT/xh018/cadence/v8_0/spectre/v8_0_1/lpmos/models/dio/dpdnwmv.scs
Reading file:  /pkg/xfab/XKIT/xh018/cadence/v8_0/spectre/v8_0_1/lpmos/models/dio/dipdnwmv.scs
Reading file:  /pkg/xfab/XKIT/xh018/cadence/v8_0/spectre/v8_0_1/lpmos/models/dio/ddnw.scs
Reading file:  /pkg/xfab/XKIT/xh018/cadence/v8_0/spectre/v8_0_1/lpmos/models/dio/dpdnw.scs
Reading file:  /pkg/xfab/XKIT/xh018/cadence/v8_0/spectre/v8_0_1/lpmos/models/dio/dipdnw.scs
Reading file:  /pkg/xfab/XKIT/xh018/cadence/v8_0/spectre/v8_0_1/lpmos/models/dio/dnhpw.scs
Reading file:  /pkg/xfab/XKIT/xh018/cadence/v8_0/spectre/v8_0_1/lpmos/models/dio/dnhpwa.scs
Reading file:  /pkg/xfab/XKIT/xh018/cadence/v8_0/spectre/v8_0_1/lpmos/models/dio/dphnw.scs
Reading file:  /pkg/xfab/XKIT/xh018/cadence/v8_0/spectre/v8_0_1/lpmos/models/dio/dphnwa.scs
Reading file:  /pkg/xfab/XKIT/xh018/cadence/v8_0/spectre/v8_0_1/lpmos/models/dio/dhpw.scs
Reading file:  /pkg/xfab/XKIT/xh018/cadence/v8_0/spectre/v8_0_1/lpmos/models/dio/dhnw.scs
Reading file:  /pkg/xfab/XKIT/xh018/cadence/v8_0/spectre/v8_0_1/lpmos/models/dio/dndf.scs
Reading file:  /pkg/xfab/XKIT/xh018/cadence/v8_0/spectre/v8_0_1/lpmos/models/dio/dpdwhn.scs
Reading file:  /pkg/xfab/XKIT/xh018/cadence/v8_0/spectre/v8_0_1/lpmos/models/dio/dwhn.scs
Reading file:  /pkg/xfab/XKIT/xh018/cadence/v8_0/spectre/v8_0_1/lpmos/models/dio/dpwhn.scs
Reading file:  /pkg/xfab/XKIT/xh018/cadence/v8_0/spectre/v8_0_1/lpmos/models/dio/dpndf.scs
Reading file:  /pkg/xfab/XKIT/xh018/cadence/v8_0/spectre/v8_0_1/lpmos/models/dio/dpdddnw.scs
Reading file:  /pkg/xfab/XKIT/xh018/cadence/v8_0/spectre/v8_0_1/lpmos/models/dio/ddpldnw.scs
Reading file:  /pkg/xfab/XKIT/xh018/cadence/v8_0/spectre/v8_0_1/lpmos/models/dio/dn3dpl.scs
Reading file:  /pkg/xfab/XKIT/xh018/cadence/v8_0/spectre/v8_0_1/lpmos/models/dio/dbn.scs
Reading file:  /pkg/xfab/XKIT/xh018/cadence/v8_0/spectre/v8_0_1/lpmos/models/dio/dpol.scs
Reading file:  /pkg/xfab/XKIT/xh018/cadence/v8_0/spectre/v8_0_1/lpmos/models/dio/dnpdd_scr.scs
Reading file:  /pkg/xfab/XKIT/xh018/cadence/v8_0/spectre/v8_0_1/lpmos/models/dio/dpdd_scr.scs
Reading file:  /pkg/xfab/XKIT/xh018/cadence/v8_0/spectre/v8_0_1/lpmos/models/dio/dsb.scs
Reading file:  /pkg/xfab/XKIT/xh018/cadence/v8_0/spectre/v8_0_1/lpmos/models/dio/dsba.scs
Reading file:  /pkg/xfab/XKIT/xh018/cadence/v8_0/spectre/v8_0_1/lpmos/models/dio/dsba_qp1.scs
Reading file:  /pkg/xfab/XKIT/xh018/cadence/v8_0/spectre/v8_0_1/lpmos/models/dio/dnp20.scs
Reading file:  /pkg/xfab/XKIT/xh018/cadence/v8_0/spectre/v8_0_1/lpmos/models/dio/dpp20.scs
Reading file:  /pkg/xfab/XKIT/xh018/cadence/v8_0/spectre/v8_0_1/lpmos/models/dio/dn3sci.scs
Reading file:  /pkg/xfab/XKIT/xh018/cadence/v8_0/spectre/v8_0_1/lpmos/models/dio/dscidnwmv.scs
Reading file:  /pkg/xfab/XKIT/xh018/cadence/v8_0/spectre/v8_0_1/lpmos/mos.scs
Reading file:  /pkg/xfab/XKIT/xh018/cadence/v8_0/spectre/v8_0_1/lpmos/models/mos/wz_mos.scs
Reading file:  /pkg/xfab/XKIT/xh018/cadence/v8_0/spectre/v8_0_1/lpmos/models/mos/ne.scs
Reading file:  /pkg/xfab/XKIT/xh018/cadence/v8_0/spectre/v8_0_1/lpmos/models/mos/nei.scs
Reading file:  /pkg/xfab/XKIT/xh018/cadence/v8_0/spectre/v8_0_1/lpmos/models/mos/nei_6.scs
Reading file:  /pkg/xfab/XKIT/xh018/cadence/v8_0/spectre/v8_0_1/lpmos/models/mos/nei_m_6.scs
Reading file:  /pkg/xfab/XKIT/xh018/cadence/v8_0/spectre/v8_0_1/lpmos/models/mos/pe.scs
Reading file:  /pkg/xfab/XKIT/xh018/cadence/v8_0/spectre/v8_0_1/lpmos/models/mos/pe_5.scs
Reading file:  /pkg/xfab/XKIT/xh018/cadence/v8_0/spectre/v8_0_1/lpmos/models/mos/pei.scs
Reading file:  /pkg/xfab/XKIT/xh018/cadence/v8_0/spectre/v8_0_1/lpmos/models/mos/pei_5.scs
Reading file:  /pkg/xfab/XKIT/xh018/cadence/v8_0/spectre/v8_0_1/lpmos/models/mos/pei_m_5.scs
Reading file:  /pkg/xfab/XKIT/xh018/cadence/v8_0/spectre/v8_0_1/lpmos/models/mos/nel.scs
Reading file:  /pkg/xfab/XKIT/xh018/cadence/v8_0/spectre/v8_0_1/lpmos/models/mos/neli.scs
Reading file:  /pkg/xfab/XKIT/xh018/cadence/v8_0/spectre/v8_0_1/lpmos/models/mos/neli_6.scs
Reading file:  /pkg/xfab/XKIT/xh018/cadence/v8_0/spectre/v8_0_1/lpmos/models/mos/neli_m_6.scs
Reading file:  /pkg/xfab/XKIT/xh018/cadence/v8_0/spectre/v8_0_1/lpmos/models/mos/pel.scs
Reading file:  /pkg/xfab/XKIT/xh018/cadence/v8_0/spectre/v8_0_1/lpmos/models/mos/pel_5.scs
Reading file:  /pkg/xfab/XKIT/xh018/cadence/v8_0/spectre/v8_0_1/lpmos/models/mos/peli.scs
Reading file:  /pkg/xfab/XKIT/xh018/cadence/v8_0/spectre/v8_0_1/lpmos/models/mos/peli_5.scs
Reading file:  /pkg/xfab/XKIT/xh018/cadence/v8_0/spectre/v8_0_1/lpmos/models/mos/peli_m_5.scs
Reading file:  /pkg/xfab/XKIT/xh018/cadence/v8_0/spectre/v8_0_1/lpmos/models/mos/nn3.scs
Reading file:  /pkg/xfab/XKIT/xh018/cadence/v8_0/spectre/v8_0_1/lpmos/models/mos/ne3.scs
Reading file:  /pkg/xfab/XKIT/xh018/cadence/v8_0/spectre/v8_0_1/lpmos/models/mos/ne3i.scs
Reading file:  /pkg/xfab/XKIT/xh018/cadence/v8_0/spectre/v8_0_1/lpmos/models/mos/ne3i_6.scs
Reading file:  /pkg/xfab/XKIT/xh018/cadence/v8_0/spectre/v8_0_1/lpmos/models/mos/ne3i_m_6.scs
Reading file:  /pkg/xfab/XKIT/xh018/cadence/v8_0/spectre/v8_0_1/lpmos/models/mos/pe3.scs
Reading file:  /pkg/xfab/XKIT/xh018/cadence/v8_0/spectre/v8_0_1/lpmos/models/mos/pe3_5.scs
Reading file:  /pkg/xfab/XKIT/xh018/cadence/v8_0/spectre/v8_0_1/lpmos/models/mos/pe3i.scs
Reading file:  /pkg/xfab/XKIT/xh018/cadence/v8_0/spectre/v8_0_1/lpmos/models/mos/pe3i_5.scs
Reading file:  /pkg/xfab/XKIT/xh018/cadence/v8_0/spectre/v8_0_1/lpmos/models/mos/pe3i_m_5.scs
Reading file:  /pkg/xfab/XKIT/xh018/cadence/v8_0/spectre/v8_0_1/lpmos/models/mos/pe3ln.scs
Reading file:  /pkg/xfab/XKIT/xh018/cadence/v8_0/spectre/v8_0_1/lpmos/models/mos/pe3ln_5.scs
Reading file:  /pkg/xfab/XKIT/xh018/cadence/v8_0/spectre/v8_0_1/lpmos/models/mos/pe3lni.scs
Reading file:  /pkg/xfab/XKIT/xh018/cadence/v8_0/spectre/v8_0_1/lpmos/models/mos/pe3lni_5.scs
Reading file:  /pkg/xfab/XKIT/xh018/cadence/v8_0/spectre/v8_0_1/lpmos/models/mos/pe3lni_m_5.scs
Reading file:  /pkg/xfab/XKIT/xh018/cadence/v8_0/spectre/v8_0_1/lpmos/models/mos/nd3.scs
Reading file:  /pkg/xfab/XKIT/xh018/cadence/v8_0/spectre/v8_0_1/lpmos/models/mos/nd3_mos1.scs
Reading file:  /pkg/xfab/XKIT/xh018/cadence/v8_0/spectre/v8_0_1/lpmos/models/mos/nd3_mos2.scs
Reading file:  /pkg/xfab/XKIT/xh018/cadence/v8_0/spectre/v8_0_1/lpmos/models/mos/nd3i.scs
Reading file:  /pkg/xfab/XKIT/xh018/cadence/v8_0/spectre/v8_0_1/lpmos/models/mos/nd3i_mos1.scs
Reading file:  /pkg/xfab/XKIT/xh018/cadence/v8_0/spectre/v8_0_1/lpmos/models/mos/nd3i_mos2.scs
Reading file:  /pkg/xfab/XKIT/xh018/cadence/v8_0/spectre/v8_0_1/lpmos/models/mos/nd3i_6.scs
Reading file:  /pkg/xfab/XKIT/xh018/cadence/v8_0/spectre/v8_0_1/lpmos/models/mos/nd3i_m_6.scs
Reading file:  /pkg/xfab/XKIT/xh018/cadence/v8_0/spectre/v8_0_1/lpmos/models/mos/nelna.scs
Reading file:  /pkg/xfab/XKIT/xh018/cadence/v8_0/spectre/v8_0_1/lpmos/models/mos/nelnai.scs
Reading file:  /pkg/xfab/XKIT/xh018/cadence/v8_0/spectre/v8_0_1/lpmos/models/mos/nelnai_6.scs
Reading file:  /pkg/xfab/XKIT/xh018/cadence/v8_0/spectre/v8_0_1/lpmos/models/mos/nelnai_m_6.scs
Reading file:  /pkg/xfab/XKIT/xh018/cadence/v8_0/spectre/v8_0_1/lpmos/models/mos/ne3lna.scs
Reading file:  /pkg/xfab/XKIT/xh018/cadence/v8_0/spectre/v8_0_1/lpmos/models/mos/ne3lnai.scs
Reading file:  /pkg/xfab/XKIT/xh018/cadence/v8_0/spectre/v8_0_1/lpmos/models/mos/ne3lnai_6.scs
Reading file:  /pkg/xfab/XKIT/xh018/cadence/v8_0/spectre/v8_0_1/lpmos/models/mos/ne3lnai_m_6.scs
Reading file:  /pkg/xfab/XKIT/xh018/cadence/v8_0/spectre/v8_0_1/lpmos/models/mos/pe3lna.scs
Reading file:  /pkg/xfab/XKIT/xh018/cadence/v8_0/spectre/v8_0_1/lpmos/models/mos/pe3lna_5.scs
Reading file:  /pkg/xfab/XKIT/xh018/cadence/v8_0/spectre/v8_0_1/lpmos/models/mos/pe3lnai.scs
Reading file:  /pkg/xfab/XKIT/xh018/cadence/v8_0/spectre/v8_0_1/lpmos/models/mos/pe3lnai_5.scs
Reading file:  /pkg/xfab/XKIT/xh018/cadence/v8_0/spectre/v8_0_1/lpmos/models/mos/pe3lnai_m_5.scs
Reading file:  /pkg/xfab/XKIT/xh018/cadence/v8_0/spectre/v8_0_1/lpmos/models/mos/nmma.scs
Reading file:  /pkg/xfab/XKIT/xh018/cadence/v8_0/spectre/v8_0_1/lpmos/models/mos/jf_nmma.scs
Reading file:  /pkg/xfab/XKIT/xh018/cadence/v8_0/spectre/v8_0_1/lpmos/models/mos/nmma_bjt.scs
Reading file:  /pkg/xfab/XKIT/xh018/cadence/v8_0/spectre/v8_0_1/lpmos/models/mos/pmma.scs
Reading file:  /pkg/xfab/XKIT/xh018/cadence/v8_0/spectre/v8_0_1/lpmos/models/mos/jf_pmma.scs
Reading file:  /pkg/xfab/XKIT/xh018/cadence/v8_0/spectre/v8_0_1/lpmos/models/mos/pmma_bjt.scs
Reading file:  /pkg/xfab/XKIT/xh018/cadence/v8_0/spectre/v8_0_1/lpmos/models/mos/nedi.scs
Reading file:  /pkg/xfab/XKIT/xh018/cadence/v8_0/spectre/v8_0_1/lpmos/models/mos/nedi_bjt.scs
Reading file:  /pkg/xfab/XKIT/xh018/cadence/v8_0/spectre/v8_0_1/lpmos/models/mos/nedia.scs
Reading file:  /pkg/xfab/XKIT/xh018/cadence/v8_0/spectre/v8_0_1/lpmos/models/mos/nedia_bjt.scs
Reading file:  /pkg/xfab/XKIT/xh018/cadence/v8_0/spectre/v8_0_1/lpmos/models/mos/ped2.scs
Reading file:  /pkg/xfab/XKIT/xh018/cadence/v8_0/spectre/v8_0_1/lpmos/models/mos/ped2_bjt.scs
Reading file:  /pkg/xfab/XKIT/xh018/cadence/v8_0/spectre/v8_0_1/lpmos/models/mos/ped.scs
Reading file:  /pkg/xfab/XKIT/xh018/cadence/v8_0/spectre/v8_0_1/lpmos/models/mos/ped_bjt.scs
Reading file:  /pkg/xfab/XKIT/xh018/cadence/v8_0/spectre/v8_0_1/lpmos/models/mos/nhv.scs
Reading file:  /pkg/xfab/XKIT/xh018/cadence/v8_0/spectre/v8_0_1/lpmos/models/mos/nhv_mos2.scs
Reading file:  /pkg/xfab/XKIT/xh018/cadence/v8_0/spectre/v8_0_1/lpmos/models/mos/nhv_bjt.scs
Reading file:  /pkg/xfab/XKIT/xh018/cadence/v8_0/spectre/v8_0_1/lpmos/models/mos/nhhv.scs
Reading file:  /pkg/xfab/XKIT/xh018/cadence/v8_0/spectre/v8_0_1/lpmos/models/mos/nhhv_mos2.scs
Reading file:  /pkg/xfab/XKIT/xh018/cadence/v8_0/spectre/v8_0_1/lpmos/models/mos/nhhv_bjt.scs
Reading file:  /pkg/xfab/XKIT/xh018/cadence/v8_0/spectre/v8_0_1/lpmos/models/mos/nmmc.scs
Reading file:  /pkg/xfab/XKIT/xh018/cadence/v8_0/spectre/v8_0_1/lpmos/models/mos/nmmc_mos2.scs
Reading file:  /pkg/xfab/XKIT/xh018/cadence/v8_0/spectre/v8_0_1/lpmos/models/mos/nmmc_bjt.scs
Reading file:  /pkg/xfab/XKIT/xh018/cadence/v8_0/spectre/v8_0_1/lpmos/models/mos/nmmd.scs
Reading file:  /pkg/xfab/XKIT/xh018/cadence/v8_0/spectre/v8_0_1/lpmos/models/mos/nmmd_mos2.scs
Reading file:  /pkg/xfab/XKIT/xh018/cadence/v8_0/spectre/v8_0_1/lpmos/models/mos/nmmd_bjt.scs
Reading file:  /pkg/xfab/XKIT/xh018/cadence/v8_0/spectre/v8_0_1/lpmos/models/mos/nmc.scs
Reading file:  /pkg/xfab/XKIT/xh018/cadence/v8_0/spectre/v8_0_1/lpmos/models/mos/nmc_mos2.scs
Reading file:  /pkg/xfab/XKIT/xh018/cadence/v8_0/spectre/v8_0_1/lpmos/models/mos/nmc_bjt.scs
Reading file:  /pkg/xfab/XKIT/xh018/cadence/v8_0/spectre/v8_0_1/lpmos/models/mos/nma.scs
Reading file:  /pkg/xfab/XKIT/xh018/cadence/v8_0/spectre/v8_0_1/lpmos/models/mos/nma_bjt.scs
Reading file:  /pkg/xfab/XKIT/xh018/cadence/v8_0/spectre/v8_0_1/lpmos/models/mos/phv.scs
Reading file:  /pkg/xfab/XKIT/xh018/cadence/v8_0/spectre/v8_0_1/lpmos/models/mos/phv_mos2.scs
Reading file:  /pkg/xfab/XKIT/xh018/cadence/v8_0/spectre/v8_0_1/lpmos/models/mos/phv_bjt.scs
Reading file:  /pkg/xfab/XKIT/xh018/cadence/v8_0/spectre/v8_0_1/lpmos/models/mos/phhv.scs
Reading file:  /pkg/xfab/XKIT/xh018/cadence/v8_0/spectre/v8_0_1/lpmos/models/mos/phhv_mos2.scs
Reading file:  /pkg/xfab/XKIT/xh018/cadence/v8_0/spectre/v8_0_1/lpmos/models/mos/phhv_bjt.scs
Reading file:  /pkg/xfab/XKIT/xh018/cadence/v8_0/spectre/v8_0_1/lpmos/models/mos/pmc.scs
Reading file:  /pkg/xfab/XKIT/xh018/cadence/v8_0/spectre/v8_0_1/lpmos/models/mos/pmc_mos2.scs
Reading file:  /pkg/xfab/XKIT/xh018/cadence/v8_0/spectre/v8_0_1/lpmos/models/mos/pmc_bjt.scs
Reading file:  /pkg/xfab/XKIT/xh018/cadence/v8_0/spectre/v8_0_1/lpmos/models/mos/pmmc.scs
Reading file:  /pkg/xfab/XKIT/xh018/cadence/v8_0/spectre/v8_0_1/lpmos/models/mos/pmmc_mos2.scs
Reading file:  /pkg/xfab/XKIT/xh018/cadence/v8_0/spectre/v8_0_1/lpmos/models/mos/pmmc_bjt.scs
Reading file:  /pkg/xfab/XKIT/xh018/cadence/v8_0/spectre/v8_0_1/lpmos/models/mos/pma.scs
Reading file:  /pkg/xfab/XKIT/xh018/cadence/v8_0/spectre/v8_0_1/lpmos/models/mos/pma_bjt.scs
Reading file:  /pkg/xfab/XKIT/xh018/cadence/v8_0/spectre/v8_0_1/lpmos/models/mos/pmb.scs
Reading file:  /pkg/xfab/XKIT/xh018/cadence/v8_0/spectre/v8_0_1/lpmos/models/mos/nesvt.scs
Reading file:  /pkg/xfab/XKIT/xh018/cadence/v8_0/spectre/v8_0_1/lpmos/models/mos/nesvti.scs
Reading file:  /pkg/xfab/XKIT/xh018/cadence/v8_0/spectre/v8_0_1/lpmos/models/mos/nesvti_6.scs
Reading file:  /pkg/xfab/XKIT/xh018/cadence/v8_0/spectre/v8_0_1/lpmos/models/mos/nesvti_m_6.scs
Reading file:  /pkg/xfab/XKIT/xh018/cadence/v8_0/spectre/v8_0_1/lpmos/models/mos/pesvt.scs
Reading file:  /pkg/xfab/XKIT/xh018/cadence/v8_0/spectre/v8_0_1/lpmos/models/mos/pesvt_5.scs
Reading file:  /pkg/xfab/XKIT/xh018/cadence/v8_0/spectre/v8_0_1/lpmos/models/mos/pesvti.scs
Reading file:  /pkg/xfab/XKIT/xh018/cadence/v8_0/spectre/v8_0_1/lpmos/models/mos/pesvti_5.scs
Reading file:  /pkg/xfab/XKIT/xh018/cadence/v8_0/spectre/v8_0_1/lpmos/models/mos/pesvti_m_5.scs
Reading file:  /pkg/xfab/XKIT/xh018/cadence/v8_0/spectre/v8_0_1/lpmos/models/mos/nhvd.scs
Reading file:  /pkg/xfab/XKIT/xh018/cadence/v8_0/spectre/v8_0_1/lpmos/models/mos/nhvd_bjt.scs
Reading file:  /pkg/xfab/XKIT/xh018/cadence/v8_0/spectre/v8_0_1/lpmos/models/mos/nhhvd.scs
Reading file:  /pkg/xfab/XKIT/xh018/cadence/v8_0/spectre/v8_0_1/lpmos/models/mos/nhhvd_bjt.scs
Reading file:  /pkg/xfab/XKIT/xh018/cadence/v8_0/spectre/v8_0_1/lpmos/photo.scs
Reading file:  /pkg/xfab/XKIT/xh018/cadence/v8_0/spectre/v8_0_1/lpmos/models/photo/tm_pho.scs
Reading file:  /pkg/xfab/XKIT/xh018/cadence/v8_0/spectre/v8_0_1/lpmos/models/photo/dphoa.scs
Reading file:  /pkg/xfab/XKIT/xh018/cadence/v8_0/spectre/v8_0_1/lpmos/models/photo/dpho.va
Reading link:  /pkg/cadence/installs/SPECTRE181/tools.lnx86/spectre/etc/ahdl/constants.h
Reading file:  /pkg/cadence/installs/SPECTRE181/tools.lnx86/spectre/etc/ahdl/constants.vams
Reading link:  /pkg/cadence/installs/SPECTRE181/tools.lnx86/spectre/etc/ahdl/discipline.h
Reading file:  /pkg/cadence/installs/SPECTRE181/tools.lnx86/spectre/etc/ahdl/disciplines.vams
Reading file:  /pkg/xfab/XKIT/xh018/cadence/v8_0/spectre/v8_0_1/lpmos/models/photo/dphob.scs
Reading file:  /pkg/xfab/XKIT/xh018/cadence/v8_0/spectre/v8_0_1/lpmos/models/photo/dphoc.scs
Reading file:  /pkg/xfab/XKIT/xh018/cadence/v8_0/spectre/v8_0_1/lpmos/models/photo/iphoto_uv.va
Reading file:  /pkg/xfab/XKIT/xh018/cadence/v8_0/spectre/v8_0_1/lpmos/models/photo/dphoc_cat.scs
Reading file:  /pkg/xfab/XKIT/xh018/cadence/v8_0/spectre/v8_0_1/lpmos/models/photo/dphoc0.scs
Reading file:  /pkg/xfab/XKIT/xh018/cadence/v8_0/spectre/v8_0_1/lpmos/models/photo/dphoc0_cat.scs
Reading file:  /pkg/xfab/XKIT/xh018/cadence/v8_0/spectre/v8_0_1/lpmos/models/photo/dphocfp.scs
Reading file:  /pkg/xfab/XKIT/xh018/cadence/v8_0/spectre/v8_0_1/lpmos/models/photo/dphocfp_cat.scs
Reading file:  /pkg/xfab/XKIT/xh018/cadence/v8_0/spectre/v8_0_1/lpmos/models/photo/dphod.scs
Reading file:  /pkg/xfab/XKIT/xh018/cadence/v8_0/spectre/v8_0_1/lpmos/models/photo/dphod_an1.scs
Reading file:  /pkg/xfab/XKIT/xh018/cadence/v8_0/spectre/v8_0_1/lpmos/models/photo/dphod_an2.scs
Reading file:  /pkg/xfab/XKIT/xh018/cadence/v8_0/spectre/v8_0_1/lpmos/models/photo/dphod0.scs
Reading file:  /pkg/xfab/XKIT/xh018/cadence/v8_0/spectre/v8_0_1/lpmos/models/photo/dphod0_an1.scs
Reading file:  /pkg/xfab/XKIT/xh018/cadence/v8_0/spectre/v8_0_1/lpmos/models/photo/dphod0_an2.scs
Reading file:  /pkg/xfab/XKIT/xh018/cadence/v8_0/spectre/v8_0_1/lpmos/models/photo/dphodfp.scs
Reading file:  /pkg/xfab/XKIT/xh018/cadence/v8_0/spectre/v8_0_1/lpmos/models/photo/dphodfp_an1.scs
Reading file:  /pkg/xfab/XKIT/xh018/cadence/v8_0/spectre/v8_0_1/lpmos/models/photo/dphodfp_an2.scs
Reading file:  /pkg/xfab/XKIT/xh018/cadence/v8_0/spectre/v8_0_1/lpmos/models/photo/dspada.scs
Reading file:  /pkg/xfab/XKIT/xh018/cadence/v8_0/spectre/v8_0_1/lpmos/models/photo/ispad.va
Reading file:  /pkg/xfab/XKIT/xh018/cadence/v8_0/spectre/v8_0_1/lpmos/models/photo/dspada_cat.scs
Reading file:  /pkg/xfab/XKIT/xh018/cadence/v8_0/spectre/v8_0_1/lpmos/models/photo/dspada0.scs
Reading file:  /pkg/xfab/XKIT/xh018/cadence/v8_0/spectre/v8_0_1/lpmos/models/photo/dapda.scs
Reading file:  /pkg/xfab/XKIT/xh018/cadence/v8_0/spectre/v8_0_1/lpmos/models/photo/iphoto_apd.va
Reading file:  /pkg/xfab/XKIT/xh018/cadence/v8_0/spectre/v8_0_1/lpmos/models/photo/dapda_cat.scs
Reading file:  /pkg/xfab/XKIT/xh018/cadence/v8_0/spectre/v8_0_1/lpmos/models/photo/dapda0.scs
Reading file:  /pkg/xfab/XKIT/xh018/cadence/v8_0/spectre/v8_0_1/lpmos/res.scs
Reading file:  /pkg/xfab/XKIT/xh018/cadence/v8_0/spectre/v8_0_1/lpmos/models/res/ws_res.scs
Reading file:  /pkg/xfab/XKIT/xh018/cadence/v8_0/spectre/v8_0_1/lpmos/models/res/rdn.scs
Reading file:  /pkg/xfab/XKIT/xh018/cadence/v8_0/spectre/v8_0_1/lpmos/models/res/rdn_esd.scs
Reading file:  /pkg/xfab/XKIT/xh018/cadence/v8_0/spectre/v8_0_1/lpmos/models/res/rdp.scs
Reading file:  /pkg/xfab/XKIT/xh018/cadence/v8_0/spectre/v8_0_1/lpmos/models/res/rdp_io.scs
Reading file:  /pkg/xfab/XKIT/xh018/cadence/v8_0/spectre/v8_0_1/lpmos/models/res/rdp_esd.scs
Reading file:  /pkg/xfab/XKIT/xh018/cadence/v8_0/spectre/v8_0_1/lpmos/models/res/rnw.scs
Reading file:  /pkg/xfab/XKIT/xh018/cadence/v8_0/spectre/v8_0_1/lpmos/models/res/rnw_scr.scs
Reading file:  /pkg/xfab/XKIT/xh018/cadence/v8_0/spectre/v8_0_1/lpmos/models/res/rdn3.scs
Reading file:  /pkg/xfab/XKIT/xh018/cadence/v8_0/spectre/v8_0_1/lpmos/models/res/rdp3.scs
Reading file:  /pkg/xfab/XKIT/xh018/cadence/v8_0/spectre/v8_0_1/lpmos/models/res/rnw3.scs
Reading file:  /pkg/xfab/XKIT/xh018/cadence/v8_0/spectre/v8_0_1/lpmos/models/res/rnw3_scr.scs
Reading file:  /pkg/xfab/XKIT/xh018/cadence/v8_0/spectre/v8_0_1/lpmos/models/res/rdnwmv.scs
Reading file:  /pkg/xfab/XKIT/xh018/cadence/v8_0/spectre/v8_0_1/lpmos/models/res/rnp1.scs
Reading file:  /pkg/xfab/XKIT/xh018/cadence/v8_0/spectre/v8_0_1/lpmos/models/res/rnp1_3.scs
Reading file:  /pkg/xfab/XKIT/xh018/cadence/v8_0/spectre/v8_0_1/lpmos/models/res/rpp1.scs
Reading file:  /pkg/xfab/XKIT/xh018/cadence/v8_0/spectre/v8_0_1/lpmos/models/res/rpp1_3.scs
Reading file:  /pkg/xfab/XKIT/xh018/cadence/v8_0/spectre/v8_0_1/lpmos/models/res/rpp1s.scs
Reading file:  /pkg/xfab/XKIT/xh018/cadence/v8_0/spectre/v8_0_1/lpmos/models/res/rpp1s_3.scs
Reading file:  /pkg/xfab/XKIT/xh018/cadence/v8_0/spectre/v8_0_1/lpmos/models/res/rnp1h.scs
Reading file:  /pkg/xfab/XKIT/xh018/cadence/v8_0/spectre/v8_0_1/lpmos/models/res/rnp1h_3.scs
Reading file:  /pkg/xfab/XKIT/xh018/cadence/v8_0/spectre/v8_0_1/lpmos/models/res/rpp1k1.scs
Reading file:  /pkg/xfab/XKIT/xh018/cadence/v8_0/spectre/v8_0_1/lpmos/models/res/rpp1k1_3.scs
Reading file:  /pkg/xfab/XKIT/xh018/cadence/v8_0/spectre/v8_0_1/lpmos/models/res/rctdn.scs
Reading file:  /pkg/xfab/XKIT/xh018/cadence/v8_0/spectre/v8_0_1/lpmos/models/res/rctdp.scs
Reading file:  /pkg/xfab/XKIT/xh018/cadence/v8_0/spectre/v8_0_1/lpmos/models/res/rctp1.scs
Reading file:  /pkg/xfab/XKIT/xh018/cadence/v8_0/spectre/v8_0_1/lpmos/models/res/rsildn.scs
Reading file:  /pkg/xfab/XKIT/xh018/cadence/v8_0/spectre/v8_0_1/lpmos/models/res/rsildp.scs
Reading file:  /pkg/xfab/XKIT/xh018/cadence/v8_0/spectre/v8_0_1/lpmos/models/res/rsilnp1.scs
Reading file:  /pkg/xfab/XKIT/xh018/cadence/v8_0/spectre/v8_0_1/lpmos/models/res/rsilpp1.scs
Reading file:  /pkg/xfab/XKIT/xh018/cadence/v8_0/spectre/v8_0_1/lpmos/models/res/rsbdn.scs
Reading file:  /pkg/xfab/XKIT/xh018/cadence/v8_0/spectre/v8_0_1/lpmos/models/res/rsbdp.scs
Reading file:  /pkg/xfab/XKIT/xh018/cadence/v8_0/spectre/v8_0_1/lpmos/models/res/rsbdn3.scs
Reading file:  /pkg/xfab/XKIT/xh018/cadence/v8_0/spectre/v8_0_1/lpmos/models/res/rsbdp3.scs
Reading file:  /pkg/xfab/XKIT/xh018/cadence/v8_0/spectre/v8_0_1/lpmos/models/res/rsbnp1.scs
Reading file:  /pkg/xfab/XKIT/xh018/cadence/v8_0/spectre/v8_0_1/lpmos/models/res/rsbpp1.scs
Reading file:  /pkg/xfab/XKIT/xh018/cadence/v8_0/spectre/v8_0_1/lpmos/models/res/rsbpp1k1.scs
Reading file:  /pkg/xfab/XKIT/xh018/cadence/v8_0/spectre/v8_0_1/lpmos/models/res/rm1.scs
Reading file:  /pkg/xfab/XKIT/xh018/cadence/v8_0/spectre/v8_0_1/lpmos/models/res/rm2.scs
Reading file:  /pkg/xfab/XKIT/xh018/cadence/v8_0/spectre/v8_0_1/lpmos/models/res/rm3.scs
Reading file:  /pkg/xfab/XKIT/xh018/cadence/v8_0/spectre/v8_0_1/lpmos/models/res/rm4.scs
Reading file:  /pkg/xfab/XKIT/xh018/cadence/v8_0/spectre/v8_0_1/lpmos/models/res/rm5.scs
Reading file:  /pkg/xfab/XKIT/xh018/cadence/v8_0/spectre/v8_0_1/lpmos/models/res/rmtp.scs
Reading file:  /pkg/xfab/XKIT/xh018/cadence/v8_0/spectre/v8_0_1/lpmos/models/res/rmtpl.scs
Reading file:  /pkg/xfab/XKIT/xh018/cadence/v8_0/spectre/v8_0_1/lpmos/models/res/pfuse.scs
Reading file:  /pkg/xfab/XKIT/xh018/cadence/v8_0/spectre/v8_0_1/lpmos/models/res/s_res.scs
Time for NDB Parsing: CPU = 490.358 ms, elapsed = 582.491 ms.
Time accumulated: CPU = 561.606 ms, elapsed = 582.509 ms.
Peak resident memory used = 70.5 Mbytes.

Time for Elaboration: CPU = 34.566 ms, elapsed = 34.5678 ms.
Time accumulated: CPU = 596.334 ms, elapsed = 617.236 ms.
Peak resident memory used = 79.9 Mbytes.


Warning from spectre during hierarchy flattening.
    WARNING (SPECTRE-17101): The value 'psf' specified using the 'checklimitdest' option will no longer be supported in future releases.


Time for EDB Visiting: CPU = 1.665 ms, elapsed = 1.66416 ms.
Time accumulated: CPU = 598.159 ms, elapsed = 619.059 ms.
Peak resident memory used = 80.6 Mbytes.


Global user options:
         psfversion = 1.1.0
            vabstol = 1e-06
            iabstol = 1e-12
               temp = 27
           homotopy = 7
              limit = delta
         compatible = spice2
               gmin = 1e-12
             rforce = 1
           maxnotes = 5
           maxwarns = 5
             digits = 5
               cols = 80
             pivrel = 0.001
           sensfile = ../psf/sens.output
     checklimitdest = psf
               save = allpub
             reltol = 0.0001
               tnom = 27
             scalem = 1
              scale = 1

Scoped user options:

Circuit inventory:
              nodes 14
             iprobe 1     
            bsim3v3 9     
          capacitor 6     
           resistor 8     
            vsource 1     

Analysis and control statement inventory:
                 dc 2     
               info 7     

Output statements:
             .probe 0     
           .measure 0     
               save 1     

Time for parsing: CPU = 4.347 ms, elapsed = 8.79192 ms.
Time accumulated: CPU = 602.636 ms, elapsed = 627.981 ms.
Peak resident memory used = 82.4 Mbytes.

~~~~~~~~~~~~~~~~~~~~~~
Pre-Simulation Summary
~~~~~~~~~~~~~~~~~~~~~~
~~~~~~~~~~~~~~~~~~~~~~

******************
DC Analysis `dcOp'
******************

Opening the PSF file ../psf/dcOp.dc ...
Important parameter values:
    reltol = 100e-06
    abstol(V) = 1 uV
    abstol(I) = 1 pA
    temp = 27 C
    tnom = 27 C
    tempeffects = all
    gmindc = 1 pS

Maximum value achieved for any signal of each quantity: 
V: V(net81) = 3.3 V
I: I(V0:p) = 40.35 uA
Convergence achieved in 18 iterations.
DC simulation time: CPU = 5.031 ms, elapsed = 7.49803 ms.
Total time required for dc analysis `dcOp': CPU = 5.123 ms, elapsed = 7.5841 ms.
Time accumulated: CPU = 619.32 ms, elapsed = 647.129 ms.
Peak resident memory used = 83.7 Mbytes.

dcOpInfo: writing operating point information to rawfile.

Opening the PSF file ../psf/dcOpInfo.info ...

********************************
DC Analysis `dc': vdd = (0 -> 4)
********************************

Opening the PSF file ../psf/dc.dc ...
Important parameter values:
    reltol = 100e-06
    abstol(V) = 1 uV
    abstol(I) = 1 pA
    temp = 27 C
    tnom = 27 C
    tempeffects = all
    gmindc = 1 pS

Notice from spectre at vdd = 80e-03 during DC analysis `dc'.
    GminDC = 1 pS is large enough to noticeably affect the DC solution.
        dV(M43.m1:int_s) = 8.36503 mV
        Use the `gmin_check' option to eliminate or expand this report.
Notice from spectre at vdd = 160e-03 during DC analysis `dc'.
    GminDC = 1 pS is large enough to noticeably affect the DC solution.
        dV(M51.m1:int_d) = 27.1446 mV
        Use the `gmin_check' option to eliminate or expand this report.

    dc: vdd = 160e-03        (4 %), step = 80e-03          (2 %)

Notice from spectre at vdd = 240e-03 during DC analysis `dc'.
    GminDC = 1 pS is large enough to noticeably affect the DC solution.
        dV(M28.m1:int_d) = -17.7888 mV
        Use the `gmin_check' option to eliminate or expand this report.

    dc: vdd = 240e-03        (6 %), step = 80e-03          (2 %)

Notice from spectre at vdd = 320e-03 during DC analysis `dc'.
    GminDC = 1 pS is large enough to noticeably affect the DC solution.
        dV(M43.m1:int_s) = -36.8478 mV
        Use the `gmin_check' option to eliminate or expand this report.

    dc: vdd = 320e-03        (8 %), step = 80e-03          (2 %)

Notice from spectre at vdd = 400e-03 during DC analysis `dc'.
    GminDC = 1 pS is large enough to noticeably affect the DC solution.
        Further occurrences of this notice will be suppressed.
[...]
Reading file:  /pkg/xfab/XKIT/xh018/cadence/v8_0/spectre/v8_0_1/lpmos/models/mos/phhv.scs
Reading file:  /pkg/xfab/XKIT/xh018/cadence/v8_0/spectre/v8_0_1/lpmos/models/mos/phhv_mos2.scs
Reading file:  /pkg/xfab/XKIT/xh018/cadence/v8_0/spectre/v8_0_1/lpmos/models/mos/phhv_bjt.scs
Reading file:  /pkg/xfab/XKIT/xh018/cadence/v8_0/spectre/v8_0_1/lpmos/models/mos/pmc.scs
Reading file:  /pkg/xfab/XKIT/xh018/cadence/v8_0/spectre/v8_0_1/lpmos/models/mos/pmc_mos2.scs
Reading file:  /pkg/xfab/XKIT/xh018/cadence/v8_0/spectre/v8_0_1/lpmos/models/mos/pmc_bjt.scs
Reading file:  /pkg/xfab/XKIT/xh018/cadence/v8_0/spectre/v8_0_1/lpmos/models/mos/pmmc.scs
Reading file:  /pkg/xfab/XKIT/xh018/cadence/v8_0/spectre/v8_0_1/lpmos/models/mos/pmmc_mos2.scs
Reading file:  /pkg/xfab/XKIT/xh018/cadence/v8_0/spectre/v8_0_1/lpmos/models/mos/pmmc_bjt.scs
Reading file:  /pkg/xfab/XKIT/xh018/cadence/v8_0/spectre/v8_0_1/lpmos/models/mos/pma.scs
Reading file:  /pkg/xfab/XKIT/xh018/cadence/v8_0/spectre/v8_0_1/lpmos/models/mos/pma_bjt.scs
Reading file:  /pkg/xfab/XKIT/xh018/cadence/v8_0/spectre/v8_0_1/lpmos/models/mos/pmb.scs
Reading file:  /pkg/xfab/XKIT/xh018/cadence/v8_0/spectre/v8_0_1/lpmos/models/mos/nesvt.scs
Reading file:  /pkg/xfab/XKIT/xh018/cadence/v8_0/spectre/v8_0_1/lpmos/models/mos/nesvti.scs
Reading file:  /pkg/xfab/XKIT/xh018/cadence/v8_0/spectre/v8_0_1/lpmos/models/mos/nesvti_6.scs
Reading file:  /pkg/xfab/XKIT/xh018/cadence/v8_0/spectre/v8_0_1/lpmos/models/mos/nesvti_m_6.scs
Reading file:  /pkg/xfab/XKIT/xh018/cadence/v8_0/spectre/v8_0_1/lpmos/models/mos/pesvt.scs
Reading file:  /pkg/xfab/XKIT/xh018/cadence/v8_0/spectre/v8_0_1/lpmos/models/mos/pesvt_5.scs
Reading file:  /pkg/xfab/XKIT/xh018/cadence/v8_0/spectre/v8_0_1/lpmos/models/mos/pesvti.scs
Reading file:  /pkg/xfab/XKIT/xh018/cadence/v8_0/spectre/v8_0_1/lpmos/models/mos/pesvti_5.scs
Reading file:  /pkg/xfab/XKIT/xh018/cadence/v8_0/spectre/v8_0_1/lpmos/models/mos/pesvti_m_5.scs
Reading file:  /pkg/xfab/XKIT/xh018/cadence/v8_0/spectre/v8_0_1/lpmos/models/mos/nhvd.scs
Reading file:  /pkg/xfab/XKIT/xh018/cadence/v8_0/spectre/v8_0_1/lpmos/models/mos/nhvd_bjt.scs
Reading file:  /pkg/xfab/XKIT/xh018/cadence/v8_0/spectre/v8_0_1/lpmos/models/mos/nhhvd.scs
Reading file:  /pkg/xfab/XKIT/xh018/cadence/v8_0/spectre/v8_0_1/lpmos/models/mos/nhhvd_bjt.scs
Reading file:  /pkg/xfab/XKIT/xh018/cadence/v8_0/spectre/v8_0_1/lpmos/photo.scs
Reading file:  /pkg/xfab/XKIT/xh018/cadence/v8_0/spectre/v8_0_1/lpmos/models/photo/tm_pho.scs
Reading file:  /pkg/xfab/XKIT/xh018/cadence/v8_0/spectre/v8_0_1/lpmos/models/photo/dphoa.scs
Reading file:  /pkg/xfab/XKIT/xh018/cadence/v8_0/spectre/v8_0_1/lpmos/models/photo/dpho.va
Reading link:  /pkg/cadence/installs/SPECTRE181/tools.lnx86/spectre/etc/ahdl/constants.h
Reading file:  /pkg/cadence/installs/SPECTRE181/tools.lnx86/spectre/etc/ahdl/constants.vams
Reading link:  /pkg/cadence/installs/SPECTRE181/tools.lnx86/spectre/etc/ahdl/discipline.h
Reading file:  /pkg/cadence/installs/SPECTRE181/tools.lnx86/spectre/etc/ahdl/disciplines.vams
Reading file:  /pkg/xfab/XKIT/xh018/cadence/v8_0/spectre/v8_0_1/lpmos/models/photo/dphob.scs
Reading file:  /pkg/xfab/XKIT/xh018/cadence/v8_0/spectre/v8_0_1/lpmos/models/photo/dphoc.scs
Reading file:  /pkg/xfab/XKIT/xh018/cadence/v8_0/spectre/v8_0_1/lpmos/models/photo/iphoto_uv.va
Reading file:  /pkg/xfab/XKIT/xh018/cadence/v8_0/spectre/v8_0_1/lpmos/models/photo/dphoc_cat.scs
Reading file:  /pkg/xfab/XKIT/xh018/cadence/v8_0/spectre/v8_0_1/lpmos/models/photo/dphoc0.scs
Reading file:  /pkg/xfab/XKIT/xh018/cadence/v8_0/spectre/v8_0_1/lpmos/models/photo/dphoc0_cat.scs
Reading file:  /pkg/xfab/XKIT/xh018/cadence/v8_0/spectre/v8_0_1/lpmos/models/photo/dphocfp.scs
Reading file:  /pkg/xfab/XKIT/xh018/cadence/v8_0/spectre/v8_0_1/lpmos/models/photo/dphocfp_cat.scs
Reading file:  /pkg/xfab/XKIT/xh018/cadence/v8_0/spectre/v8_0_1/lpmos/models/photo/dphod.scs
Reading file:  /pkg/xfab/XKIT/xh018/cadence/v8_0/spectre/v8_0_1/lpmos/models/photo/dphod_an1.scs
Reading file:  /pkg/xfab/XKIT/xh018/cadence/v8_0/spectre/v8_0_1/lpmos/models/photo/dphod_an2.scs
Reading file:  /pkg/xfab/XKIT/xh018/cadence/v8_0/spectre/v8_0_1/lpmos/models/photo/dphod0.scs
Reading file:  /pkg/xfab/XKIT/xh018/cadence/v8_0/spectre/v8_0_1/lpmos/models/photo/dphod0_an1.scs
Reading file:  /pkg/xfab/XKIT/xh018/cadence/v8_0/spectre/v8_0_1/lpmos/models/photo/dphod0_an2.scs
Reading file:  /pkg/xfab/XKIT/xh018/cadence/v8_0/spectre/v8_0_1/lpmos/models/photo/dphodfp.scs
Reading file:  /pkg/xfab/XKIT/xh018/cadence/v8_0/spectre/v8_0_1/lpmos/models/photo/dphodfp_an1.scs
Reading file:  /pkg/xfab/XKIT/xh018/cadence/v8_0/spectre/v8_0_1/lpmos/models/photo/dphodfp_an2.scs
Reading file:  /pkg/xfab/XKIT/xh018/cadence/v8_0/spectre/v8_0_1/lpmos/models/photo/dspada.scs
Reading file:  /pkg/xfab/XKIT/xh018/cadence/v8_0/spectre/v8_0_1/lpmos/models/photo/ispad.va
Reading file:  /pkg/xfab/XKIT/xh018/cadence/v8_0/spectre/v8_0_1/lpmos/models/photo/dspada_cat.scs
Reading file:  /pkg/xfab/XKIT/xh018/cadence/v8_0/spectre/v8_0_1/lpmos/models/photo/dspada0.scs
Reading file:  /pkg/xfab/XKIT/xh018/cadence/v8_0/spectre/v8_0_1/lpmos/models/photo/dapda.scs
Reading file:  /pkg/xfab/XKIT/xh018/cadence/v8_0/spectre/v8_0_1/lpmos/models/photo/iphoto_apd.va
Reading file:  /pkg/xfab/XKIT/xh018/cadence/v8_0/spectre/v8_0_1/lpmos/models/photo/dapda_cat.scs
Reading file:  /pkg/xfab/XKIT/xh018/cadence/v8_0/spectre/v8_0_1/lpmos/models/photo/dapda0.scs
Reading file:  /pkg/xfab/XKIT/xh018/cadence/v8_0/spectre/v8_0_1/lpmos/res.scs
Reading file:  /pkg/xfab/XKIT/xh018/cadence/v8_0/spectre/v8_0_1/lpmos/models/res/wp_res.scs
Reading file:  /pkg/xfab/XKIT/xh018/cadence/v8_0/spectre/v8_0_1/lpmos/models/res/rdn.scs
Reading file:  /pkg/xfab/XKIT/xh018/cadence/v8_0/spectre/v8_0_1/lpmos/models/res/rdn_esd.scs
Reading file:  /pkg/xfab/XKIT/xh018/cadence/v8_0/spectre/v8_0_1/lpmos/models/res/rdp.scs
Reading file:  /pkg/xfab/XKIT/xh018/cadence/v8_0/spectre/v8_0_1/lpmos/models/res/rdp_io.scs
Reading file:  /pkg/xfab/XKIT/xh018/cadence/v8_0/spectre/v8_0_1/lpmos/models/res/rdp_esd.scs
Reading file:  /pkg/xfab/XKIT/xh018/cadence/v8_0/spectre/v8_0_1/lpmos/models/res/rnw.scs
Reading file:  /pkg/xfab/XKIT/xh018/cadence/v8_0/spectre/v8_0_1/lpmos/models/res/rnw_scr.scs
Reading file:  /pkg/xfab/XKIT/xh018/cadence/v8_0/spectre/v8_0_1/lpmos/models/res/rdn3.scs
Reading file:  /pkg/xfab/XKIT/xh018/cadence/v8_0/spectre/v8_0_1/lpmos/models/res/rdp3.scs
Reading file:  /pkg/xfab/XKIT/xh018/cadence/v8_0/spectre/v8_0_1/lpmos/models/res/rnw3.scs
Reading file:  /pkg/xfab/XKIT/xh018/cadence/v8_0/spectre/v8_0_1/lpmos/models/res/rnw3_scr.scs
Reading file:  /pkg/xfab/XKIT/xh018/cadence/v8_0/spectre/v8_0_1/lpmos/models/res/rdnwmv.scs
Reading file:  /pkg/xfab/XKIT/xh018/cadence/v8_0/spectre/v8_0_1/lpmos/models/res/rnp1.scs
Reading file:  /pkg/xfab/XKIT/xh018/cadence/v8_0/spectre/v8_0_1/lpmos/models/res/rnp1_3.scs
Reading file:  /pkg/xfab/XKIT/xh018/cadence/v8_0/spectre/v8_0_1/lpmos/models/res/rpp1.scs
Reading file:  /pkg/xfab/XKIT/xh018/cadence/v8_0/spectre/v8_0_1/lpmos/models/res/rpp1_3.scs
Reading file:  /pkg/xfab/XKIT/xh018/cadence/v8_0/spectre/v8_0_1/lpmos/models/res/rpp1s.scs
Reading file:  /pkg/xfab/XKIT/xh018/cadence/v8_0/spectre/v8_0_1/lpmos/models/res/rpp1s_3.scs
Reading file:  /pkg/xfab/XKIT/xh018/cadence/v8_0/spectre/v8_0_1/lpmos/models/res/rnp1h.scs
Reading file:  /pkg/xfab/XKIT/xh018/cadence/v8_0/spectre/v8_0_1/lpmos/models/res/rnp1h_3.scs
Reading file:  /pkg/xfab/XKIT/xh018/cadence/v8_0/spectre/v8_0_1/lpmos/models/res/rpp1k1.scs
Reading file:  /pkg/xfab/XKIT/xh018/cadence/v8_0/spectre/v8_0_1/lpmos/models/res/rpp1k1_3.scs
Reading file:  /pkg/xfab/XKIT/xh018/cadence/v8_0/spectre/v8_0_1/lpmos/models/res/rctdn.scs
Reading file:  /pkg/xfab/XKIT/xh018/cadence/v8_0/spectre/v8_0_1/lpmos/models/res/rctdp.scs
Reading file:  /pkg/xfab/XKIT/xh018/cadence/v8_0/spectre/v8_0_1/lpmos/models/res/rctp1.scs
Reading file:  /pkg/xfab/XKIT/xh018/cadence/v8_0/spectre/v8_0_1/lpmos/models/res/rsildn.scs
Reading file:  /pkg/xfab/XKIT/xh018/cadence/v8_0/spectre/v8_0_1/lpmos/models/res/rsildp.scs
Reading file:  /pkg/xfab/XKIT/xh018/cadence/v8_0/spectre/v8_0_1/lpmos/models/res/rsilnp1.scs
Reading file:  /pkg/xfab/XKIT/xh018/cadence/v8_0/spectre/v8_0_1/lpmos/models/res/rsilpp1.scs
Reading file:  /pkg/xfab/XKIT/xh018/cadence/v8_0/spectre/v8_0_1/lpmos/models/res/rsbdn.scs
Reading file:  /pkg/xfab/XKIT/xh018/cadence/v8_0/spectre/v8_0_1/lpmos/models/res/rsbdp.scs
Reading file:  /pkg/xfab/XKIT/xh018/cadence/v8_0/spectre/v8_0_1/lpmos/models/res/rsbdn3.scs
Reading file:  /pkg/xfab/XKIT/xh018/cadence/v8_0/spectre/v8_0_1/lpmos/models/res/rsbdp3.scs
Reading file:  /pkg/xfab/XKIT/xh018/cadence/v8_0/spectre/v8_0_1/lpmos/models/res/rsbnp1.scs
Reading file:  /pkg/xfab/XKIT/xh018/cadence/v8_0/spectre/v8_0_1/lpmos/models/res/rsbpp1.scs
Reading file:  /pkg/xfab/XKIT/xh018/cadence/v8_0/spectre/v8_0_1/lpmos/models/res/rsbpp1k1.scs
Reading file:  /pkg/xfab/XKIT/xh018/cadence/v8_0/spectre/v8_0_1/lpmos/models/res/rm1.scs
Reading file:  /pkg/xfab/XKIT/xh018/cadence/v8_0/spectre/v8_0_1/lpmos/models/res/rm2.scs
Reading file:  /pkg/xfab/XKIT/xh018/cadence/v8_0/spectre/v8_0_1/lpmos/models/res/rm3.scs
Reading file:  /pkg/xfab/XKIT/xh018/cadence/v8_0/spectre/v8_0_1/lpmos/models/res/rm4.scs
Reading file:  /pkg/xfab/XKIT/xh018/cadence/v8_0/spectre/v8_0_1/lpmos/models/res/rm5.scs
Reading file:  /pkg/xfab/XKIT/xh018/cadence/v8_0/spectre/v8_0_1/lpmos/models/res/rmtp.scs
Reading file:  /pkg/xfab/XKIT/xh018/cadence/v8_0/spectre/v8_0_1/lpmos/models/res/rmtpl.scs
Reading file:  /pkg/xfab/XKIT/xh018/cadence/v8_0/spectre/v8_0_1/lpmos/models/res/pfuse.scs
Reading file:  /pkg/xfab/XKIT/xh018/cadence/v8_0/spectre/v8_0_1/lpmos/models/res/s_res.scs
Time for NDB Parsing: CPU = 467.999 ms, elapsed = 551.833 ms.
Time accumulated: CPU = 536.839 ms, elapsed = 551.846 ms.
Peak resident memory used = 70.5 Mbytes.

Time for Elaboration: CPU = 28.25 ms, elapsed = 28.25 ms.
Time accumulated: CPU = 565.281 ms, elapsed = 580.287 ms.
Peak resident memory used = 79.8 Mbytes.


Warning from spectre during hierarchy flattening.
    WARNING (SPECTRE-17101): The value 'psf' specified using the 'checklimitdest' option will no longer be supported in future releases.


Time for EDB Visiting: CPU = 1.32 ms, elapsed = 1.31917 ms.
Time accumulated: CPU = 566.776 ms, elapsed = 581.781 ms.
Peak resident memory used = 80.6 Mbytes.


Global user options:
         psfversion = 1.1.0
            vabstol = 1e-06
            iabstol = 1e-12
               temp = 27
           homotopy = 7
              limit = delta
         compatible = spice2
               gmin = 1e-12
             rforce = 1
           maxnotes = 5
           maxwarns = 5
             digits = 5
               cols = 80
             pivrel = 0.001
           sensfile = ../psf/sens.output
     checklimitdest = psf
               save = allpub
             reltol = 0.0001
               tnom = 27
             scalem = 1
              scale = 1

Scoped user options:

Circuit inventory:
              nodes 14
             iprobe 1     
            bsim3v3 9     
          capacitor 6     
           resistor 8     
            vsource 1     

Analysis and control statement inventory:
                 dc 2     
               info 7     

Output statements:
             .probe 0     
           .measure 0     
               save 1     

Time for parsing: CPU = 3.705 ms, elapsed = 7.92384 ms.
Time accumulated: CPU = 570.626 ms, elapsed = 589.85 ms.
Peak resident memory used = 82.4 Mbytes.

~~~~~~~~~~~~~~~~~~~~~~
Pre-Simulation Summary
~~~~~~~~~~~~~~~~~~~~~~
~~~~~~~~~~~~~~~~~~~~~~

******************
DC Analysis `dcOp'
******************

Opening the PSF file ../psf/dcOp.dc ...
Important parameter values:
    reltol = 100e-06
    abstol(V) = 1 uV
    abstol(I) = 1 pA
    temp = 27 C
    tnom = 27 C
    tempeffects = all
    gmindc = 1 pS
Trying `homotopy = gmin'.

Maximum value achieved for any signal of each quantity: 
V: V(net81) = 3.3 V
I: I(V0:p) = 42.7 uA
Convergence achieved in 236 iterations.
DC simulation time: CPU = 5.266 ms, elapsed = 7.63297 ms.
Total time required for dc analysis `dcOp': CPU = 5.313 ms, elapsed = 7.67684 ms.
Time accumulated: CPU = 580.76 ms, elapsed = 602.351 ms.
Peak resident memory used = 83.7 Mbytes.

dcOpInfo: writing operating point information to rawfile.

Opening the PSF file ../psf/dcOpInfo.info ...

********************************
DC Analysis `dc': vdd = (0 -> 4)
********************************

Opening the PSF file ../psf/dc.dc ...
Important parameter values:
    reltol = 100e-06
    abstol(V) = 1 uV
    abstol(I) = 1 pA
    temp = 27 C
    tnom = 27 C
    tempeffects = all
    gmindc = 1 pS

Notice from spectre at vdd = 80e-03 during DC analysis `dc'.
    GminDC = 1 pS is large enough to noticeably affect the DC solution.
        dV(M54.m1:int_d) = 6.18419 mV
        Use the `gmin_check' option to eliminate or expand this report.
Notice from spectre at vdd = 160e-03 during DC analysis `dc'.
    GminDC = 1 pS is large enough to noticeably affect the DC solution.
        dV(M54.m1:int_d) = 11.5281 mV
        Use the `gmin_check' option to eliminate or expand this report.

    dc: vdd = 160e-03        (4 %), step = 80e-03          (2 %)

Notice from spectre at vdd = 240e-03 during DC analysis `dc'.
    GminDC = 1 pS is large enough to noticeably affect the DC solution.
        dV(M54.m1:int_d) = 15.178 mV
        Use the `gmin_check' option to eliminate or expand this report.

    dc: vdd = 240e-03        (6 %), step = 80e-03          (2 %)

Notice from spectre at vdd = 320e-03 during DC analysis `dc'.
    GminDC = 1 pS is large enough to noticeably affect the DC solution.
        dV(M43.m1:int_s) = 16.4796 mV
        Use the `gmin_check' option to eliminate or expand this report.

    dc: vdd = 320e-03        (8 %), step = 80e-03          (2 %)

Notice from spectre at vdd = 400e-03 during DC analysis `dc'.
    GminDC = 1 pS is large enough to noticeably affect the DC solution.
        Further occurrences of this notice will be suppressed.
        dV(M51.m1:int_d) = 51.543 mV
        Further occurrences of this notice will be suppressed.
        Use the `gmin_check' option to eliminate or expand this report.
        Further occurrences of this notice will be suppressed.

    dc: vdd = 400e-03       (10 %), step = 80e-03          (2 %)
    dc: vdd = 480e-03       (12 %), step = 80e-03          (2 %)
    dc: vdd = 560e-03       (14 %), step = 80e-03          (2 %)
    dc: vdd = 640e-03       (16 %), step = 80e-03          (2 %)
    dc: vdd = 720e-03       (18 %), step = 80e-03          (2 %)
    dc: vdd = 800e-03       (20 %), step = 80e-03          (2 %)
    dc: vdd = 880e-03       (22 %), step = 80e-03          (2 %)
    dc: vdd = 960e-03       (24 %), step = 80e-03          (2 %)
    dc: vdd = 1.04          (26 %), step = 80e-03          (2 %)
    dc: vdd = 1.12          (28 %), step = 80e-03          (2 %)
    dc: vdd = 1.2           (30 %), step = 80e-03          (2 %)
    dc: vdd = 1.28          (32 %), step = 80e-03          (2 %)
    dc: vdd = 1.36          (34 %), step = 80e-03          (2 %)
    dc: vdd = 1.44          (36 %), step = 80e-03          (2 %)
    dc: vdd = 1.52          (38 %), step = 80e-03          (2 %)
    dc: vdd = 1.6           (40 %), step = 80e-03          (2 %)
    dc: vdd = 1.68          (42 %), step = 80e-03          (2 %)
    dc: vdd = 1.76          (44 %), step = 80e-03          (2 %)
    dc: vdd = 1.84          (46 %), step = 80e-03          (2 %)
    dc: vdd = 1.92          (48 %), step = 80e-03          (2 %)
    dc: vdd = 2             (50 %), step = 80e-03          (2 %)
    dc: vdd = 2.08          (52 %), step = 80e-03          (2 %)
    dc: vdd = 2.16          (54 %), step = 80e-03          (2 %)
    dc: vdd = 2.24          (56 %), step = 80e-03          (2 %)
    dc: vdd = 2.32          (58 %), step = 80e-03          (2 %)
    dc: vdd = 2.4           (60 %), step = 80e-03          (2 %)
    dc: vdd = 2.48          (62 %), step = 80e-03          (2 %)
    dc: vdd = 2.56          (64 %), step = 80e-03          (2 %)
    dc: vdd = 2.64          (66 %), step = 80e-03          (2 %)
    dc: vdd = 2.72          (68 %), step = 80e-03          (2 %)
    dc: vdd = 2.8           (70 %), step = 80e-03          (2 %)
    dc: vdd = 2.88          (72 %), step = 80e-03          (2 %)
Trying `homotopy = gmin'.

Notice from spectre at vdd = 2.96 during DC analysis `dc'.
    Bad pivoting is found during DC analysis. Option dc_pivot_check=yes is recommended for possible improvement of convergence.

    dc: vdd = 2.96          (74 %), step = 80e-03          (2 %)

Notice from spectre at vdd = 3.04 during DC analysis `dc'.
    Bad pivoting is found during DC analysis. Option dc_pivot_check=yes is recommended for possible improvement of convergence.

    dc: vdd = 3.04          (76 %), step = 80e-03          (2 %)

Notice from spectre at vdd = 3.12 during DC analysis `dc'.
    Bad pivoting is found during DC analysis. Option dc_pivot_check=yes is recommended for possible improvement of convergence.

    dc: vdd = 3.12          (78 %), step = 80e-03          (2 %)

Notice from spectre at vdd = 3.2 during DC analysis `dc'.
    Bad pivoting is found during DC analysis. Option dc_pivot_check=yes is recommended for possible improvement of convergence.

    dc: vdd = 3.2           (80 %), step = 80e-03          (2 %)

Notice from spectre at vdd = 3.28 during DC analysis `dc'.
    Bad pivoting is found during DC analysis. Option dc_pivot_check=yes is recommended for possible improvement of convergence.
        Further occurrences of this notice will be suppressed.

    dc: vdd = 3.28          (82 %), step = 80e-03          (2 %)
    dc: vdd = 3.36          (84 %), step = 80e-03          (2 %)
    dc: vdd = 3.44          (86 %), step = 80e-03          (2 %)
    dc: vdd = 3.52          (88 %), step = 80e-03          (2 %)
    dc: vdd = 3.6           (90 %), step = 80e-03          (2 %)
    dc: vdd = 3.68          (92 %), step = 80e-03          (2 %)
    dc: vdd = 3.76          (94 %), step = 80e-03          (2 %)
    dc: vdd = 3.84          (96 %), step = 80e-03          (2 %)
    dc: vdd = 3.92          (98 %), step = 80e-03          (2 %)
    dc: vdd = 4            (100 %), step = 80e-03          (2 %)

Maximum value achieved for any signal of each quantity: 
V: V(net81) = 4 V
I: I(V0:p) = 58.53 uA
DC simulation time: CPU = 109.204 ms, elapsed = 111.504 ms.

Notice from spectre at vdd = 4 during DC analysis `dc'.
    The value of parameter 'vdd' has been reset to the original value 3.3.

Total time required for dc analysis `dc': CPU = 109.251 ms, elapsed = 111.549 ms.
Time accumulated: CPU = 694.801 ms, elapsed = 721.042 ms.
Peak resident memory used = 84.4 Mbytes.


Notice from spectre.
    15 notices suppressed.

modelParameter: writing model parameter values to rawfile.

Opening the PSF file ../psf/modelParameter.info ...
element: writing instance parameter values to rawfile.

Opening the PSF file ../psf/element.info ...
outputParameter: writing output parameter values to rawfile.

Opening the PSF file ../psf/outputParameter.info ...
designParamVals: writing netlist parameters to rawfile.

Opening the PSFASCII file ../psf/designParamVals.info ...
primitives: writing primitives to rawfile.

Opening the PSFASCII file ../psf/primitives.info.primitives ...
subckts: writing subcircuits to rawfile.

Opening the PSFASCII file ../psf/subckts.info.subckts ...

Aggregate audit (4:32:11 PM, Thur Mar 25, 2021):
Time used: CPU = 752 ms, elapsed = 802 ms, util. = 93.7%.
Time spent in licensing: elapsed = 141 ms, percentage of total = 17.6%.
Peak memory used = 85.3 Mbytes.
Simulation started at: 4:32:10 PM, Thur Mar 25, 2021, ended at: 4:32:11 PM, Thur Mar 25, 2021, with elapsed time (wall clock): 802 ms.
spectre completes with 0 errors, 1 warning, and 13 notices.


********* LOG ENDS **************
**                             **
