xrun(64): 18.03-s018: (c) Copyright 1995-2019 Cadence Design Systems, Inc.
file: ./netlist.vams
	module EMG_NMES_TestBench.Sim_StimulusArtifact:schematic
		errors: 0, warnings: 0
file: /home/ykhuang/research/Stimulator_Model/Current_Source/verilogams/verilog.vams
xmvlog: *W,SPDUSD: Include directory /home/ykhuang/research/ given but not used.
	Total errors/warnings found outside modules and primitives:
		errors: 0, warnings: 1
xmvlog: Memory Usage - Current physical: 25.7M, Current virtual: 57.7M
xmvlog: CPU Usage - 0.0s system + 0.0s user = 0.0s total (0.1s, 79.2% cpu)

		Caching library 'Stimulator_Model' ....... Done
		Caching library 'worklib' ....... Done
		Caching library 'EMG_NMES_TestBench' ....... Done
		Caching library 'EMG_Model' ....... Done
	Elaborating the design hierarchy:
	Top level design units:
		Sim_StimulusArtifact
		cds_globals
	Discipline resolution Pass...
	Doing auto-insertion of connection elements...
	Connect Rules applied are:
		ConnRules_18V_full_fast
	Building instance overlay tables: .................... Done
	Building instance specific data structures.
	Loading native compiled code:     .................... Done
	Design hierarchy summary:
		                 Instances  Unique
		Modules:                21      28
		Registers:              80     140
		Scalar wires:           22       -
		Vectored wires:         11       -
		Always blocks:          79      57
		Initial blocks:         11      24
		Cont. assignments:      11      21
		Interconnect:           37       -
		Simulation timescale:  1ps
	Writing initial simulation snapshot: EMG_NMES_TestBench.Sim_StimulusArtifact:config
xmelab: Memory Usage - Final: 42.8M, Peak: 215.8M, Peak virtual: 300.8M
xmelab: CPU Usage - 0.1s system + 0.1s user = 0.2s total (0.2s, 94.1% cpu)
Loading snapshot EMG_NMES_TestBench.Sim_StimulusArtifact:config .................... Done
Simulating in AMS-SIE mode...
	Starting analog simulation engine...
AMSD: Using spectre solver with arguments: -ahdllibdir xcelium.d/AMSD/ahdlSimDB ++aps.

Spectre (R) Circuit Simulator
Version 17.1.0.433.isr9 64bit -- 5 Nov 2018
Copyright (C) 1989-2018 Cadence Design Systems, Inc. All rights reserved
        worldwide. Cadence and Spectre are registered trademarks of Cadence
        Design Systems, Inc. All others are the property of their respective
        holders.

Includes RSA BSAFE(R) Cryptographic or Security Protocol Software from RSA
        Security, Inc.

User: ykhuang   Host: s2424   HostID: ED824314   PID: 15672
Memory  available: 53.1925 GB  physical: 67.2863 GB
Linux   : CentOS Linux release 7.9.2009 (Core)
CPU Type: Intel(R) Xeon(R) CPU E5-2630 v3 @ 2.40GHz
        Socket: Processors [Frequency] (Hyperthreaded Processor)
        0:       0 [1400.0] ( 16 ),  1 [2316.4] ( 17 ),  2 [1389.7] ( 18 )
                 3 [1296.2] ( 19 ),  4 [1397.2] ( 20 ),  5 [1298.0] ( 21 )
                 6 [1257.9] ( 22 ),  7 [2322.7] ( 23 )
        1:       8 [1263.6] ( 24 ),  9 [1200.3] ( 25 ), 10 [2268.2] ( 26 )
                11 [1279.4] ( 27 ), 12 [1200.0] ( 28 ), 13 [2400.0] ( 29 )
                14 [1239.7] ( 30 ), 15 [1200.7] ( 31 )
        
System load averages (1min, 5min, 15min) : 1.2 %, 4.4 %, 7.1 %
Hyperthreading is enabled
HPC is enabled


Analog Kernel using -ANALOGCONTROL  ./spiceModels.scs.

Reading file: 
        /home/ykhuang/research/Sim/Sim_StimulusArtifact/ams/config/netlist/spiceModels.scs

Notice from spectre during circuit read-in.
    Configuration file used:
        `/pkg/cadence/installs/XCELIUM1803/tools.lnx86/spectre/etc/configs/ams.cfg'.

Reading file: 
        /home/ykhuang/research/Stimulator_Model/Current_Source/verilogams/verilog.vams
Reading file: 
        /home/ykhuang/research/Sim/Sim_StimulusArtifact/ams/config/netlist/xcelium.d/AMSD/ahdlSimDB/1483_research_Stimulator_Model_Current_Source_verilogams_verilog.vams.Stimulator_Model__Current_Source__verilogams__0x10000001_behavioral.ahdlcmi/Linux-64/obj/optimize/5.0/libahdlcmi_Stimulator_Model__Current_Source__verilogams__0x10000001_behavioral.so
Installed compiled interface for
        Stimulator_Model__Current_Source__verilogams__0x10000001_behavioral.
Reading file: 
        /home/ykhuang/research/Stimulator_Model/Current_Mirror/verilogams/verilog.vams
Reading file: 
        /home/ykhuang/research/Sim/Sim_StimulusArtifact/ams/config/netlist/xcelium.d/AMSD/ahdlSimDB/1483_research_Stimulator_Model_Current_Mirror_verilogams_verilog.vams.Stimulator_Model__Current_Mirror__verilogams__0x10000001_behavioral.ahdlcmi/Linux-64/obj/optimize/5.0/libahdlcmi_Stimulator_Model__Current_Mirror__verilogams__0x10000001_behavioral.so
Installed compiled interface for
        Stimulator_Model__Current_Mirror__verilogams__0x10000001_behavioral.
Reading file: 
        /home/ykhuang/research/Stimulator_Model/H_Bridge/verilogams/verilog.vams
Reading file: 
        /home/ykhuang/research/Sim/Sim_StimulusArtifact/ams/config/netlist/xcelium.d/AMSD/ahdlSimDB/1483_research_Stimulator_Model_H_Bridge_verilogams_verilog.vams.Stimulator_Model__H_Bridge__verilogams__0x10000001_behavioral.ahdlcmi/Linux-64/obj/optimize/5.0/libahdlcmi_Stimulator_Model__H_Bridge__verilogams__0x10000001_behavioral.so
Installed compiled interface for
        Stimulator_Model__H_Bridge__verilogams__0x10000001_behavioral.
Reading file: 
        /home/ykhuang/research/Sim/Sim_StimulusArtifact/ams/config/netlist/netlist.vams
Reading file: 
        /home/ykhuang/research/EMG_Model/BPF_EMG/verilogams/verilog.vams
Reading file: 
        /home/ykhuang/research/Sim/Sim_StimulusArtifact/ams/config/netlist/xcelium.d/AMSD/ahdlSimDB/1483_research_EMG_Model_BPF_EMG_verilogams_verilog.vams.EMG_Model__BPF_EMG__verilogams__0x10000001_behavioral.ahdlcmi/Linux-64/obj/optimize/5.0/libahdlcmi_EMG_Model__BPF_EMG__verilogams__0x10000001_behavioral.so
Installed compiled interface for
        EMG_Model__BPF_EMG__verilogams__0x10000001_behavioral.
Reading file: 
        /home/ykhuang/research/EMG_Model/PGA_EMG/verilogams/verilog.vams
Reading file: 
        /home/ykhuang/research/Sim/Sim_StimulusArtifact/ams/config/netlist/xcelium.d/AMSD/ahdlSimDB/1483_research_EMG_Model_PGA_EMG_verilogams_verilog.vams.EMG_Model__PGA_EMG__verilogams__0x10000001_behavioral.ahdlcmi/Linux-64/obj/optimize/5.0/libahdlcmi_EMG_Model__PGA_EMG__verilogams__0x10000001_behavioral.so
Installed compiled interface for
        EMG_Model__PGA_EMG__verilogams__0x10000001_behavioral.
Reading file: 
        /home/ykhuang/research/EMG_Model/IA_EMG_Ideal/verilogams/verilog.vams
Reading file: 
        /home/ykhuang/research/Sim/Sim_StimulusArtifact/ams/config/netlist/xcelium.d/AMSD/ahdlSimDB/1483_research_EMG_Model_IA_EMG_Ideal_verilogams_verilog.vams.EMG_Model__IA_EMG_Ideal__verilogams__0x10000001_behavioral.ahdlcmi/Linux-64/obj/optimize/5.0/libahdlcmi_EMG_Model__IA_EMG_Ideal__verilogams__0x10000001_behavioral.so
Installed compiled interface for
        EMG_Model__IA_EMG_Ideal__verilogams__0x10000001_behavioral.
Reading link:  /pkg/cadence/installs/XCELIUM1803/tools
Reading file: 
        /pkg/cadence/installs/XCELIUM1803/tools.lnx86/affirma_ams/etc/connect_lib/E2L_2.vams
Reading file: 
        /home/ykhuang/research/Sim/Sim_StimulusArtifact/ams/config/netlist/xcelium.d/AMSD/ahdlSimDB/3151_tools_affirma_ams_etc_connect_lib_E2L_2.vams.connectLib__E2L_2__module__0x10000001_behavioral.ahdlcmi/Linux-64/obj/optimize/5.0/libahdlcmi_connectLib__E2L_2__module__0x10000001_behavioral.so
Installed compiled interface for
        connectLib__E2L_2__module__0x10000001_behavioral.
Reading file: 
        /pkg/cadence/installs/XCELIUM1803/tools.lnx86/spectre/etc/configs/mapsubckt.cfg
Reading file: 
        /pkg/cadence/installs/XCELIUM1803/tools.lnx86/spectre/etc/configs/spectre.cfg
Reading file: 
        /pkg/xfab/XKIT/xh018/cadence/v8_0/spectre/v8_0_1/lpmos/config.scs
Reading file: 
        /pkg/xfab/XKIT/xh018/cadence/v8_0/spectre/v8_0_1/lpmos/param.scs
Reading file:  /pkg/xfab/XKIT/xh018/cadence/v8_0/spectre/v8_0_1/lpmos/bip.scs
Reading file: 
        /pkg/xfab/XKIT/xh018/cadence/v8_0/spectre/v8_0_1/lpmos/models/bip/tm_bip.scs
Reading file: 
        /pkg/xfab/XKIT/xh018/cadence/v8_0/spectre/v8_0_1/lpmos/models/bip/qpva.scs
Reading file: 
        /pkg/xfab/XKIT/xh018/cadence/v8_0/spectre/v8_0_1/lpmos/models/bip/qpvb.scs
Reading file: 
        /pkg/xfab/XKIT/xh018/cadence/v8_0/spectre/v8_0_1/lpmos/models/bip/qpvc.scs
Reading file: 
        /pkg/xfab/XKIT/xh018/cadence/v8_0/spectre/v8_0_1/lpmos/models/bip/qpva3.scs
Reading file: 
        /pkg/xfab/XKIT/xh018/cadence/v8_0/spectre/v8_0_1/lpmos/models/bip/qpvb3.scs
Reading file: 
        /pkg/xfab/XKIT/xh018/cadence/v8_0/spectre/v8_0_1/lpmos/models/bip/qpvc3.scs
Reading file: 
        /pkg/xfab/XKIT/xh018/cadence/v8_0/spectre/v8_0_1/lpmos/models/bip/qnva.scs
Reading file: 
        /pkg/xfab/XKIT/xh018/cadence/v8_0/spectre/v8_0_1/lpmos/models/bip/qnvb.scs
Reading file: 
        /pkg/xfab/XKIT/xh018/cadence/v8_0/spectre/v8_0_1/lpmos/models/bip/qnvb_npn.scs
Reading file: 
        /pkg/xfab/XKIT/xh018/cadence/v8_0/spectre/v8_0_1/lpmos/models/bip/qnvb_pnp.scs
Reading file: 
        /pkg/xfab/XKIT/xh018/cadence/v8_0/spectre/v8_0_1/lpmos/models/bip/qnvc.scs
Reading file: 
        /pkg/xfab/XKIT/xh018/cadence/v8_0/spectre/v8_0_1/lpmos/models/bip/qnvc_npn.scs
Reading file: 
        /pkg/xfab/XKIT/xh018/cadence/v8_0/spectre/v8_0_1/lpmos/models/bip/qnvc_pnp.scs
Reading file: 
        /pkg/xfab/XKIT/xh018/cadence/v8_0/spectre/v8_0_1/lpmos/models/bip/qpvhscr.scs
Reading file: 
        /pkg/xfab/XKIT/xh018/cadence/v8_0/spectre/v8_0_1/lpmos/models/bip/qpvascr.scs
Reading file: 
        /pkg/xfab/XKIT/xh018/cadence/v8_0/spectre/v8_0_1/lpmos/models/bip/qpvhbscr.scs
Reading file: 
        /pkg/xfab/XKIT/xh018/cadence/v8_0/spectre/v8_0_1/lpmos/models/bip/qpv_pa.scs
Reading file: 
        /pkg/xfab/XKIT/xh018/cadence/v8_0/spectre/v8_0_1/lpmos/models/bip/qpv_pb.scs
Reading file: 
        /pkg/xfab/XKIT/xh018/cadence/v8_0/spectre/v8_0_1/lpmos/models/bip/qpv_pc.scs
Reading file: 
        /pkg/xfab/XKIT/xh018/cadence/v8_0/spectre/v8_0_1/lpmos/models/bip/qpv_pd.scs
Reading file: 
        /pkg/xfab/XKIT/xh018/cadence/v8_0/spectre/v8_0_1/lpmos/models/bip/qpv_pe.scs
Reading file: 
        /pkg/xfab/XKIT/xh018/cadence/v8_0/spectre/v8_0_1/lpmos/models/bip/qpv_pf.scs
Reading file: 
        /pkg/xfab/XKIT/xh018/cadence/v8_0/spectre/v8_0_1/lpmos/models/bip/qpl_pa.scs
Reading file: 
        /pkg/xfab/XKIT/xh018/cadence/v8_0/spectre/v8_0_1/lpmos/models/bip/qpl_pb.scs
Reading file: 
        /pkg/xfab/XKIT/xh018/cadence/v8_0/spectre/v8_0_1/lpmos/models/bip/qpl_pc.scs
Reading file: 
        /pkg/xfab/XKIT/xh018/cadence/v8_0/spectre/v8_0_1/lpmos/models/bip/qpl_pd.scs
Reading file: 
        /pkg/xfab/XKIT/xh018/cadence/v8_0/spectre/v8_0_1/lpmos/models/bip/qpl_pe.scs
Reading file: 
        /pkg/xfab/XKIT/xh018/cadence/v8_0/spectre/v8_0_1/lpmos/models/bip/qpl_pf.scs
Reading file: 
        /pkg/xfab/XKIT/xh018/cadence/v8_0/spectre/v8_0_1/lpmos/models/bip/qnl_pa.scs
Reading file: 
        /pkg/xfab/XKIT/xh018/cadence/v8_0/spectre/v8_0_1/lpmos/models/bip/qnl_pb.scs
Reading file: 
        /pkg/xfab/XKIT/xh018/cadence/v8_0/spectre/v8_0_1/lpmos/models/bip/qnl_pc.scs
Reading file: 
        /pkg/xfab/XKIT/xh018/cadence/v8_0/spectre/v8_0_1/lpmos/models/bip/qnl_pd.scs
Reading file: 
        /pkg/xfab/XKIT/xh018/cadence/v8_0/spectre/v8_0_1/lpmos/models/bip/qnl_pe.scs
Reading file: 
        /pkg/xfab/XKIT/xh018/cadence/v8_0/spectre/v8_0_1/lpmos/models/bip/qnl_pf.scs
Reading file:  /pkg/xfab/XKIT/xh018/cadence/v8_0/spectre/v8_0_1/lpmos/cap.scs
Reading file: 
        /pkg/xfab/XKIT/xh018/cadence/v8_0/spectre/v8_0_1/lpmos/models/cap/tm_cap.scs
Reading file: 
        /pkg/xfab/XKIT/xh018/cadence/v8_0/spectre/v8_0_1/lpmos/models/cap/csandwt3.scs
Reading file: 
        /pkg/xfab/XKIT/xh018/cadence/v8_0/spectre/v8_0_1/lpmos/models/cap/csandwt4.scs
Reading file: 
        /pkg/xfab/XKIT/xh018/cadence/v8_0/spectre/v8_0_1/lpmos/models/cap/csandwt5.scs
Reading file: 
        /pkg/xfab/XKIT/xh018/cadence/v8_0/spectre/v8_0_1/lpmos/models/cap/csf2p.scs
Reading file: 
        /pkg/xfab/XKIT/xh018/cadence/v8_0/spectre/v8_0_1/lpmos/models/cap/csf3p.scs
Reading file: 
        /pkg/xfab/XKIT/xh018/cadence/v8_0/spectre/v8_0_1/lpmos/models/cap/csf3.scs
Reading file: 
        /pkg/xfab/XKIT/xh018/cadence/v8_0/spectre/v8_0_1/lpmos/models/cap/csf4.scs
Reading file: 
        /pkg/xfab/XKIT/xh018/cadence/v8_0/spectre/v8_0_1/lpmos/models/cap/csf5.scs
Reading file: 
        /pkg/xfab/XKIT/xh018/cadence/v8_0/spectre/v8_0_1/lpmos/models/cap/csft4.scs
Reading file: 
        /pkg/xfab/XKIT/xh018/cadence/v8_0/spectre/v8_0_1/lpmos/models/cap/csft5.scs
Reading file: 
        /pkg/xfab/XKIT/xh018/cadence/v8_0/spectre/v8_0_1/lpmos/models/cap/csft6.scs
Reading file: 
        /pkg/xfab/XKIT/xh018/cadence/v8_0/spectre/v8_0_1/lpmos/models/cap/csf3a.scs
Reading file: 
        /pkg/xfab/XKIT/xh018/cadence/v8_0/spectre/v8_0_1/lpmos/models/cap/csf4a.scs
Reading file: 
        /pkg/xfab/XKIT/xh018/cadence/v8_0/spectre/v8_0_1/lpmos/models/cap/csf5a.scs
Reading file: 
        /pkg/xfab/XKIT/xh018/cadence/v8_0/spectre/v8_0_1/lpmos/models/cap/csft4a.scs
Reading file: 
        /pkg/xfab/XKIT/xh018/cadence/v8_0/spectre/v8_0_1/lpmos/models/cap/csft5a.scs
Reading file: 
        /pkg/xfab/XKIT/xh018/cadence/v8_0/spectre/v8_0_1/lpmos/models/cap/csft6a.scs
Reading file: 
        /pkg/xfab/XKIT/xh018/cadence/v8_0/spectre/v8_0_1/lpmos/models/cap/cmm3.scs
Reading file: 
        /pkg/xfab/XKIT/xh018/cadence/v8_0/spectre/v8_0_1/lpmos/models/cap/cmm4t.scs
Reading file: 
        /pkg/xfab/XKIT/xh018/cadence/v8_0/spectre/v8_0_1/lpmos/models/cap/cmm4.scs
Reading file: 
        /pkg/xfab/XKIT/xh018/cadence/v8_0/spectre/v8_0_1/lpmos/models/cap/cmm5t.scs
Reading file: 
        /pkg/xfab/XKIT/xh018/cadence/v8_0/spectre/v8_0_1/lpmos/models/cap/cmm6t.scs
Reading file: 
        /pkg/xfab/XKIT/xh018/cadence/v8_0/spectre/v8_0_1/lpmos/models/cap/cdmm4.scs
Reading file: 
        /pkg/xfab/XKIT/xh018/cadence/v8_0/spectre/v8_0_1/lpmos/models/cap/cdmm4t.scs
Reading file: 
        /pkg/xfab/XKIT/xh018/cadence/v8_0/spectre/v8_0_1/lpmos/models/cap/ctmm5.scs
Reading file: 
        /pkg/xfab/XKIT/xh018/cadence/v8_0/spectre/v8_0_1/lpmos/models/cap/ctmm5t.scs
Reading file: 
        /pkg/xfab/XKIT/xh018/cadence/v8_0/spectre/v8_0_1/lpmos/models/cap/cmmh3.scs
Reading file: 
        /pkg/xfab/XKIT/xh018/cadence/v8_0/spectre/v8_0_1/lpmos/models/cap/cmmh4t.scs
Reading file: 
        /pkg/xfab/XKIT/xh018/cadence/v8_0/spectre/v8_0_1/lpmos/models/cap/cmmh4.scs
Reading file: 
        /pkg/xfab/XKIT/xh018/cadence/v8_0/spectre/v8_0_1/lpmos/models/cap/cmmh5t.scs
Reading file: 
        /pkg/xfab/XKIT/xh018/cadence/v8_0/spectre/v8_0_1/lpmos/models/cap/cmmh6t.scs
Reading file: 
        /pkg/xfab/XKIT/xh018/cadence/v8_0/spectre/v8_0_1/lpmos/models/cap/cdmmh4.scs
Reading file: 
        /pkg/xfab/XKIT/xh018/cadence/v8_0/spectre/v8_0_1/lpmos/models/cap/cdmmh4t.scs
Reading file: 
        /pkg/xfab/XKIT/xh018/cadence/v8_0/spectre/v8_0_1/lpmos/models/cap/ctmmh5.scs
Reading file: 
        /pkg/xfab/XKIT/xh018/cadence/v8_0/spectre/v8_0_1/lpmos/models/cap/ctmmh5t.scs
Reading file: 
        /pkg/xfab/XKIT/xh018/cadence/v8_0/spectre/v8_0_1/lpmos/models/cap/mosvc.scs
Reading file: 
        /pkg/xfab/XKIT/xh018/cadence/v8_0/spectre/v8_0_1/lpmos/models/cap/mosvc_pmos.scs
Reading file: 
        /pkg/xfab/XKIT/xh018/cadence/v8_0/spectre/v8_0_1/lpmos/models/cap/mosvci.scs
Reading file: 
        /pkg/xfab/XKIT/xh018/cadence/v8_0/spectre/v8_0_1/lpmos/models/cap/mosvci_nmos.scs
Reading file: 
        /pkg/xfab/XKIT/xh018/cadence/v8_0/spectre/v8_0_1/lpmos/models/cap/mosvci_m.scs
Reading file: 
        /pkg/xfab/XKIT/xh018/cadence/v8_0/spectre/v8_0_1/lpmos/models/cap/mosvc3.scs
Reading file: 
        /pkg/xfab/XKIT/xh018/cadence/v8_0/spectre/v8_0_1/lpmos/models/cap/mosvc3_pmos.scs
Reading file: 
        /pkg/xfab/XKIT/xh018/cadence/v8_0/spectre/v8_0_1/lpmos/models/cap/mosvc3i.scs
Reading file: 
        /pkg/xfab/XKIT/xh018/cadence/v8_0/spectre/v8_0_1/lpmos/models/cap/mosvc3i_nmos.scs
Reading file: 
        /pkg/xfab/XKIT/xh018/cadence/v8_0/spectre/v8_0_1/lpmos/models/cap/mosvc3i_m.scs
Reading file: 
        /pkg/xfab/XKIT/xh018/cadence/v8_0/spectre/v8_0_1/lpmos/models/cap/cpod.scs
Reading file: 
        /pkg/xfab/XKIT/xh018/cadence/v8_0/spectre/v8_0_1/lpmos/models/cap/cpod_i.scs
Reading file: 
        /pkg/xfab/XKIT/xh018/cadence/v8_0/spectre/v8_0_1/lpmos/models/cap/cpodhv.scs
Reading file: 
        /pkg/xfab/XKIT/xh018/cadence/v8_0/spectre/v8_0_1/lpmos/models/cap/cpodhv_i.scs
Reading file: 
        /pkg/xfab/XKIT/xh018/cadence/v8_0/spectre/v8_0_1/lpmos/models/cap/cp1sub.scs
Reading file: 
        /pkg/xfab/XKIT/xh018/cadence/v8_0/spectre/v8_0_1/lpmos/models/cap/cp1suba.scs
Reading file: 
        /pkg/xfab/XKIT/xh018/cadence/v8_0/spectre/v8_0_1/lpmos/models/cap/cp1subp.scs
Reading file: 
        /pkg/xfab/XKIT/xh018/cadence/v8_0/spectre/v8_0_1/lpmos/models/cap/tag_25v.scs
Reading file: 
        /pkg/xfab/XKIT/xh018/cadence/v8_0/spectre/v8_0_1/lpmos/models/cap/tag_60v.scs
Reading file:  /pkg/xfab/XKIT/xh018/cadence/v8_0/spectre/v8_0_1/lpmos/dio.scs
Reading file: 
        /pkg/xfab/XKIT/xh018/cadence/v8_0/spectre/v8_0_1/lpmos/models/dio/tm_dio.scs
Reading file: 
        /pkg/xfab/XKIT/xh018/cadence/v8_0/spectre/v8_0_1/lpmos/models/dio/dn.scs
Reading file: 
        /pkg/xfab/XKIT/xh018/cadence/v8_0/spectre/v8_0_1/lpmos/models/dio/dp.scs
Reading file: 
        /pkg/xfab/XKIT/xh018/cadence/v8_0/spectre/v8_0_1/lpmos/models/dio/dnw.scs
Reading file: 
        /pkg/xfab/XKIT/xh018/cadence/v8_0/spectre/v8_0_1/lpmos/models/dio/dn3.scs
Reading file: 
        /pkg/xfab/XKIT/xh018/cadence/v8_0/spectre/v8_0_1/lpmos/models/dio/dnn3.scs
Reading file: 
        /pkg/xfab/XKIT/xh018/cadence/v8_0/spectre/v8_0_1/lpmos/models/dio/dp3.scs
Reading file: 
        /pkg/xfab/XKIT/xh018/cadence/v8_0/spectre/v8_0_1/lpmos/models/dio/dnw3.scs
Reading file: 
        /pkg/xfab/XKIT/xh018/cadence/v8_0/spectre/v8_0_1/lpmos/models/dio/ddnwmv.scs
Reading file: 
        /pkg/xfab/XKIT/xh018/cadence/v8_0/spectre/v8_0_1/lpmos/models/dio/dpdnwmv.scs
Reading file: 
        /pkg/xfab/XKIT/xh018/cadence/v8_0/spectre/v8_0_1/lpmos/models/dio/dipdnwmv.scs
Reading file: 
        /pkg/xfab/XKIT/xh018/cadence/v8_0/spectre/v8_0_1/lpmos/models/dio/ddnw.scs
Reading file: 
        /pkg/xfab/XKIT/xh018/cadence/v8_0/spectre/v8_0_1/lpmos/models/dio/dpdnw.scs
Reading file: 
        /pkg/xfab/XKIT/xh018/cadence/v8_0/spectre/v8_0_1/lpmos/models/dio/dipdnw.scs
Reading file: 
        /pkg/xfab/XKIT/xh018/cadence/v8_0/spectre/v8_0_1/lpmos/models/dio/dnhpw.scs
Reading file: 
        /pkg/xfab/XKIT/xh018/cadence/v8_0/spectre/v8_0_1/lpmos/models/dio/dnhpwa.scs
Reading file: 
        /pkg/xfab/XKIT/xh018/cadence/v8_0/spectre/v8_0_1/lpmos/models/dio/dphnw.scs
Reading file: 
        /pkg/xfab/XKIT/xh018/cadence/v8_0/spectre/v8_0_1/lpmos/models/dio/dphnwa.scs
Reading file: 
        /pkg/xfab/XKIT/xh018/cadence/v8_0/spectre/v8_0_1/lpmos/models/dio/dhpw.scs
Reading file: 
        /pkg/xfab/XKIT/xh018/cadence/v8_0/spectre/v8_0_1/lpmos/models/dio/dhnw.scs
Reading file: 
        /pkg/xfab/XKIT/xh018/cadence/v8_0/spectre/v8_0_1/lpmos/models/dio/dndf.scs
Reading file: 
        /pkg/xfab/XKIT/xh018/cadence/v8_0/spectre/v8_0_1/lpmos/models/dio/dpdwhn.scs
Reading file: 
        /pkg/xfab/XKIT/xh018/cadence/v8_0/spectre/v8_0_1/lpmos/models/dio/dwhn.scs
Reading file: 
        /pkg/xfab/XKIT/xh018/cadence/v8_0/spectre/v8_0_1/lpmos/models/dio/dpwhn.scs
Reading file: 
        /pkg/xfab/XKIT/xh018/cadence/v8_0/spectre/v8_0_1/lpmos/models/dio/dpndf.scs
Reading file: 
        /pkg/xfab/XKIT/xh018/cadence/v8_0/spectre/v8_0_1/lpmos/models/dio/dpdddnw.scs
Reading file: 
        /pkg/xfab/XKIT/xh018/cadence/v8_0/spectre/v8_0_1/lpmos/models/dio/ddpldnw.scs
Reading file: 
        /pkg/xfab/XKIT/xh018/cadence/v8_0/spectre/v8_0_1/lpmos/models/dio/dn3dpl.scs
Reading file: 
        /pkg/xfab/XKIT/xh018/cadence/v8_0/spectre/v8_0_1/lpmos/models/dio/dbn.scs
Reading file: 
        /pkg/xfab/XKIT/xh018/cadence/v8_0/spectre/v8_0_1/lpmos/models/dio/dpol.scs
Reading file: 
        /pkg/xfab/XKIT/xh018/cadence/v8_0/spectre/v8_0_1/lpmos/models/dio/dnpdd_scr.scs
Reading file: 
        /pkg/xfab/XKIT/xh018/cadence/v8_0/spectre/v8_0_1/lpmos/models/dio/dpdd_scr.scs
Reading file: 
        /pkg/xfab/XKIT/xh018/cadence/v8_0/spectre/v8_0_1/lpmos/models/dio/dsb.scs
Reading file: 
        /pkg/xfab/XKIT/xh018/cadence/v8_0/spectre/v8_0_1/lpmos/models/dio/dsba.scs
Reading file: 
        /pkg/xfab/XKIT/xh018/cadence/v8_0/spectre/v8_0_1/lpmos/models/dio/dsba_qp1.scs
Reading file: 
        /pkg/xfab/XKIT/xh018/cadence/v8_0/spectre/v8_0_1/lpmos/models/dio/dnp20.scs
Reading file: 
        /pkg/xfab/XKIT/xh018/cadence/v8_0/spectre/v8_0_1/lpmos/models/dio/dpp20.scs
Reading file: 
        /pkg/xfab/XKIT/xh018/cadence/v8_0/spectre/v8_0_1/lpmos/models/dio/dn3sci.scs
Reading file: 
        /pkg/xfab/XKIT/xh018/cadence/v8_0/spectre/v8_0_1/lpmos/models/dio/dscidnwmv.scs
Reading file:  /pkg/xfab/XKIT/xh018/cadence/v8_0/spectre/v8_0_1/lpmos/mos.scs
Reading file: 
        /pkg/xfab/XKIT/xh018/cadence/v8_0/spectre/v8_0_1/lpmos/models/mos/tm_mos.scs
Reading file: 
        /pkg/xfab/XKIT/xh018/cadence/v8_0/spectre/v8_0_1/lpmos/models/mos/ne.scs
Reading file: 
        /pkg/xfab/XKIT/xh018/cadence/v8_0/spectre/v8_0_1/lpmos/models/mos/nei.scs
Reading file: 
        /pkg/xfab/XKIT/xh018/cadence/v8_0/spectre/v8_0_1/lpmos/models/mos/nei_6.scs
Reading file: 
        /pkg/xfab/XKIT/xh018/cadence/v8_0/spectre/v8_0_1/lpmos/models/mos/nei_m_6.scs
Reading file: 
        /pkg/xfab/XKIT/xh018/cadence/v8_0/spectre/v8_0_1/lpmos/models/mos/pe.scs
Reading file: 
        /pkg/xfab/XKIT/xh018/cadence/v8_0/spectre/v8_0_1/lpmos/models/mos/pe_5.scs
Reading file: 
        /pkg/xfab/XKIT/xh018/cadence/v8_0/spectre/v8_0_1/lpmos/models/mos/pei.scs
Reading file: 
        /pkg/xfab/XKIT/xh018/cadence/v8_0/spectre/v8_0_1/lpmos/models/mos/pei_5.scs
Reading file: 
        /pkg/xfab/XKIT/xh018/cadence/v8_0/spectre/v8_0_1/lpmos/models/mos/pei_m_5.scs
Reading file: 
        /pkg/xfab/XKIT/xh018/cadence/v8_0/spectre/v8_0_1/lpmos/models/mos/nel.scs
Reading file: 
        /pkg/xfab/XKIT/xh018/cadence/v8_0/spectre/v8_0_1/lpmos/models/mos/neli.scs
Reading file: 
        /pkg/xfab/XKIT/xh018/cadence/v8_0/spectre/v8_0_1/lpmos/models/mos/neli_6.scs
Reading file: 
        /pkg/xfab/XKIT/xh018/cadence/v8_0/spectre/v8_0_1/lpmos/models/mos/neli_m_6.scs
Reading file: 
        /pkg/xfab/XKIT/xh018/cadence/v8_0/spectre/v8_0_1/lpmos/models/mos/pel.scs
Reading file: 
        /pkg/xfab/XKIT/xh018/cadence/v8_0/spectre/v8_0_1/lpmos/models/mos/pel_5.scs
Reading file: 
        /pkg/xfab/XKIT/xh018/cadence/v8_0/spectre/v8_0_1/lpmos/models/mos/peli.scs
Reading file: 
        /pkg/xfab/XKIT/xh018/cadence/v8_0/spectre/v8_0_1/lpmos/models/mos/peli_5.scs
Reading file: 
        /pkg/xfab/XKIT/xh018/cadence/v8_0/spectre/v8_0_1/lpmos/models/mos/peli_m_5.scs
Reading file: 
        /pkg/xfab/XKIT/xh018/cadence/v8_0/spectre/v8_0_1/lpmos/models/mos/nn3.scs
Reading file: 
        /pkg/xfab/XKIT/xh018/cadence/v8_0/spectre/v8_0_1/lpmos/models/mos/ne3.scs
Reading file: 
        /pkg/xfab/XKIT/xh018/cadence/v8_0/spectre/v8_0_1/lpmos/models/mos/ne3i.scs
Reading file: 
        /pkg/xfab/XKIT/xh018/cadence/v8_0/spectre/v8_0_1/lpmos/models/mos/ne3i_6.scs
Reading file: 
        /pkg/xfab/XKIT/xh018/cadence/v8_0/spectre/v8_0_1/lpmos/models/mos/ne3i_m_6.scs
Reading file: 
        /pkg/xfab/XKIT/xh018/cadence/v8_0/spectre/v8_0_1/lpmos/models/mos/pe3.scs
Reading file: 
        /pkg/xfab/XKIT/xh018/cadence/v8_0/spectre/v8_0_1/lpmos/models/mos/pe3_5.scs
Reading file: 
        /pkg/xfab/XKIT/xh018/cadence/v8_0/spectre/v8_0_1/lpmos/models/mos/pe3i.scs
Reading file: 
        /pkg/xfab/XKIT/xh018/cadence/v8_0/spectre/v8_0_1/lpmos/models/mos/pe3i_5.scs
Reading file: 
        /pkg/xfab/XKIT/xh018/cadence/v8_0/spectre/v8_0_1/lpmos/models/mos/pe3i_m_5.scs
Reading file: 
        /pkg/xfab/XKIT/xh018/cadence/v8_0/spectre/v8_0_1/lpmos/models/mos/pe3ln.scs
Reading file: 
        /pkg/xfab/XKIT/xh018/cadence/v8_0/spectre/v8_0_1/lpmos/models/mos/pe3ln_5.scs
Reading file: 
        /pkg/xfab/XKIT/xh018/cadence/v8_0/spectre/v8_0_1/lpmos/models/mos/pe3lni.scs
Reading file: 
        /pkg/xfab/XKIT/xh018/cadence/v8_0/spectre/v8_0_1/lpmos/models/mos/pe3lni_5.scs
Reading file: 
        /pkg/xfab/XKIT/xh018/cadence/v8_0/spectre/v8_0_1/lpmos/models/mos/pe3lni_m_5.scs
Reading file: 
        /pkg/xfab/XKIT/xh018/cadence/v8_0/spectre/v8_0_1/lpmos/models/mos/nd3.scs
Reading file: 
        /pkg/xfab/XKIT/xh018/cadence/v8_0/spectre/v8_0_1/lpmos/models/mos/nd3_mos1.scs
Reading file: 
        /pkg/xfab/XKIT/xh018/cadence/v8_0/spectre/v8_0_1/lpmos/models/mos/nd3_mos2.scs
Reading file: 
        /pkg/xfab/XKIT/xh018/cadence/v8_0/spectre/v8_0_1/lpmos/models/mos/nd3i.scs
Reading file: 
        /pkg/xfab/XKIT/xh018/cadence/v8_0/spectre/v8_0_1/lpmos/models/mos/nd3i_mos1.scs
Reading file: 
        /pkg/xfab/XKIT/xh018/cadence/v8_0/spectre/v8_0_1/lpmos/models/mos/nd3i_mos2.scs
Reading file: 
        /pkg/xfab/XKIT/xh018/cadence/v8_0/spectre/v8_0_1/lpmos/models/mos/nd3i_6.scs
Reading file: 
        /pkg/xfab/XKIT/xh018/cadence/v8_0/spectre/v8_0_1/lpmos/models/mos/nd3i_m_6.scs
Reading file: 
        /pkg/xfab/XKIT/xh018/cadence/v8_0/spectre/v8_0_1/lpmos/models/mos/nelna.scs
Reading file: 
        /pkg/xfab/XKIT/xh018/cadence/v8_0/spectre/v8_0_1/lpmos/models/mos/nelnai.scs
Reading file: 
        /pkg/xfab/XKIT/xh018/cadence/v8_0/spectre/v8_0_1/lpmos/models/mos/nelnai_6.scs
Reading file: 
        /pkg/xfab/XKIT/xh018/cadence/v8_0/spectre/v8_0_1/lpmos/models/mos/nelnai_m_6.scs
Reading file: 
        /pkg/xfab/XKIT/xh018/cadence/v8_0/spectre/v8_0_1/lpmos/models/mos/ne3lna.scs
Reading file: 
        /pkg/xfab/XKIT/xh018/cadence/v8_0/spectre/v8_0_1/lpmos/models/mos/ne3lnai.scs
Reading file: 
        /pkg/xfab/XKIT/xh018/cadence/v8_0/spectre/v8_0_1/lpmos/models/mos/ne3lnai_6.scs
Reading file: 
        /pkg/xfab/XKIT/xh018/cadence/v8_0/spectre/v8_0_1/lpmos/models/mos/ne3lnai_m_6.scs
Reading file: 
        /pkg/xfab/XKIT/xh018/cadence/v8_0/spectre/v8_0_1/lpmos/models/mos/pe3lna.scs
Reading file: 
        /pkg/xfab/XKIT/xh018/cadence/v8_0/spectre/v8_0_1/lpmos/models/mos/pe3lna_5.scs
Reading file: 
        /pkg/xfab/XKIT/xh018/cadence/v8_0/spectre/v8_0_1/lpmos/models/mos/pe3lnai.scs
Reading file: 
        /pkg/xfab/XKIT/xh018/cadence/v8_0/spectre/v8_0_1/lpmos/models/mos/pe3lnai_5.scs
Reading file: 
        /pkg/xfab/XKIT/xh018/cadence/v8_0/spectre/v8_0_1/lpmos/models/mos/pe3lnai_m_5.scs
Reading file: 
        /pkg/xfab/XKIT/xh018/cadence/v8_0/spectre/v8_0_1/lpmos/models/mos/nmma.scs
Reading file: 
        /pkg/xfab/XKIT/xh018/cadence/v8_0/spectre/v8_0_1/lpmos/models/mos/jf_nmma.scs
Reading file: 
        /pkg/xfab/XKIT/xh018/cadence/v8_0/spectre/v8_0_1/lpmos/models/mos/nmma_bjt.scs
Reading file: 
        /pkg/xfab/XKIT/xh018/cadence/v8_0/spectre/v8_0_1/lpmos/models/mos/pmma.scs
Reading file: 
        /pkg/xfab/XKIT/xh018/cadence/v8_0/spectre/v8_0_1/lpmos/models/mos/jf_pmma.scs
Reading file: 
        /pkg/xfab/XKIT/xh018/cadence/v8_0/spectre/v8_0_1/lpmos/models/mos/pmma_bjt.scs
Reading file: 
        /pkg/xfab/XKIT/xh018/cadence/v8_0/spectre/v8_0_1/lpmos/models/mos/nedi.scs
Reading file: 
        /pkg/xfab/XKIT/xh018/cadence/v8_0/spectre/v8_0_1/lpmos/models/mos/nedi_bjt.scs
Reading file: 
        /pkg/xfab/XKIT/xh018/cadence/v8_0/spectre/v8_0_1/lpmos/models/mos/nedia.scs
Reading file: 
        /pkg/xfab/XKIT/xh018/cadence/v8_0/spectre/v8_0_1/lpmos/models/mos/nedia_bjt.scs
Reading file: 
        /pkg/xfab/XKIT/xh018/cadence/v8_0/spectre/v8_0_1/lpmos/models/mos/ped2.scs
Reading file: 
        /pkg/xfab/XKIT/xh018/cadence/v8_0/spectre/v8_0_1/lpmos/models/mos/ped2_bjt.scs
Reading file: 
        /pkg/xfab/XKIT/xh018/cadence/v8_0/spectre/v8_0_1/lpmos/models/mos/ped.scs
Reading file: 
        /pkg/xfab/XKIT/xh018/cadence/v8_0/spectre/v8_0_1/lpmos/models/mos/ped_bjt.scs
Reading file: 
        /pkg/xfab/XKIT/xh018/cadence/v8_0/spectre/v8_0_1/lpmos/models/mos/nhv.scs
Reading file: 
        /pkg/xfab/XKIT/xh018/cadence/v8_0/spectre/v8_0_1/lpmos/models/mos/nhv_mos2.scs
Reading file: 
        /pkg/xfab/XKIT/xh018/cadence/v8_0/spectre/v8_0_1/lpmos/models/mos/nhv_bjt.scs
Reading file: 
        /pkg/xfab/XKIT/xh018/cadence/v8_0/spectre/v8_0_1/lpmos/models/mos/nhhv.scs
Reading file: 
        /pkg/xfab/XKIT/xh018/cadence/v8_0/spectre/v8_0_1/lpmos/models/mos/nhhv_mos2.scs
Reading file: 
        /pkg/xfab/XKIT/xh018/cadence/v8_0/spectre/v8_0_1/lpmos/models/mos/nhhv_bjt.scs
Reading file: 
        /pkg/xfab/XKIT/xh018/cadence/v8_0/spectre/v8_0_1/lpmos/models/mos/nmmc.scs
Reading file: 
        /pkg/xfab/XKIT/xh018/cadence/v8_0/spectre/v8_0_1/lpmos/models/mos/nmmc_mos2.scs
Reading file: 
        /pkg/xfab/XKIT/xh018/cadence/v8_0/spectre/v8_0_1/lpmos/models/mos/nmmc_bjt.scs
Reading file: 
        /pkg/xfab/XKIT/xh018/cadence/v8_0/spectre/v8_0_1/lpmos/models/mos/nmmd.scs
Reading file: 
        /pkg/xfab/XKIT/xh018/cadence/v8_0/spectre/v8_0_1/lpmos/models/mos/nmmd_mos2.scs
Reading file: 
        /pkg/xfab/XKIT/xh018/cadence/v8_0/spectre/v8_0_1/lpmos/models/mos/nmmd_bjt.scs
Reading file: 
        /pkg/xfab/XKIT/xh018/cadence/v8_0/spectre/v8_0_1/lpmos/models/mos/nmc.scs
Reading file: 
        /pkg/xfab/XKIT/xh018/cadence/v8_0/spectre/v8_0_1/lpmos/models/mos/nmc_mos2.scs
Reading file: 
        /pkg/xfab/XKIT/xh018/cadence/v8_0/spectre/v8_0_1/lpmos/models/mos/nmc_bjt.scs
Reading file: 
        /pkg/xfab/XKIT/xh018/cadence/v8_0/spectre/v8_0_1/lpmos/models/mos/nma.scs
Reading file: 
        /pkg/xfab/XKIT/xh018/cadence/v8_0/spectre/v8_0_1/lpmos/models/mos/nma_bjt.scs
Reading file: 
        /pkg/xfab/XKIT/xh018/cadence/v8_0/spectre/v8_0_1/lpmos/models/mos/phv.scs
Reading file: 
        /pkg/xfab/XKIT/xh018/cadence/v8_0/spectre/v8_0_1/lpmos/models/mos/phv_mos2.scs
Reading file: 
        /pkg/xfab/XKIT/xh018/cadence/v8_0/spectre/v8_0_1/lpmos/models/mos/phv_bjt.scs
Reading file: 
        /pkg/xfab/XKIT/xh018/cadence/v8_0/spectre/v8_0_1/lpmos/models/mos/phhv.scs
Reading file: 
        /pkg/xfab/XKIT/xh018/cadence/v8_0/spectre/v8_0_1/lpmos/models/mos/phhv_mos2.scs
Reading file: 
        /pkg/xfab/XKIT/xh018/cadence/v8_0/spectre/v8_0_1/lpmos/models/mos/phhv_bjt.scs
Reading file: 
        /pkg/xfab/XKIT/xh018/cadence/v8_0/spectre/v8_0_1/lpmos/models/mos/pmc.scs
Reading file: 
        /pkg/xfab/XKIT/xh018/cadence/v8_0/spectre/v8_0_1/lpmos/models/mos/pmc_mos2.scs
Reading file: 
        /pkg/xfab/XKIT/xh018/cadence/v8_0/spectre/v8_0_1/lpmos/models/mos/pmc_bjt.scs
Reading file: 
        /pkg/xfab/XKIT/xh018/cadence/v8_0/spectre/v8_0_1/lpmos/models/mos/pmmc.scs
Reading file: 
        /pkg/xfab/XKIT/xh018/cadence/v8_0/spectre/v8_0_1/lpmos/models/mos/pmmc_mos2.scs
Reading file: 
        /pkg/xfab/XKIT/xh018/cadence/v8_0/spectre/v8_0_1/lpmos/models/mos/pmmc_bjt.scs
Reading file: 
        /pkg/xfab/XKIT/xh018/cadence/v8_0/spectre/v8_0_1/lpmos/models/mos/pma.scs
Reading file: 
        /pkg/xfab/XKIT/xh018/cadence/v8_0/spectre/v8_0_1/lpmos/models/mos/pma_bjt.scs
Reading file: 
        /pkg/xfab/XKIT/xh018/cadence/v8_0/spectre/v8_0_1/lpmos/models/mos/pmb.scs
Reading file: 
        /pkg/xfab/XKIT/xh018/cadence/v8_0/spectre/v8_0_1/lpmos/models/mos/nesvt.scs
Reading file: 
        /pkg/xfab/XKIT/xh018/cadence/v8_0/spectre/v8_0_1/lpmos/models/mos/nesvti.scs
Reading file: 
        /pkg/xfab/XKIT/xh018/cadence/v8_0/spectre/v8_0_1/lpmos/models/mos/nesvti_6.scs
Reading file: 
        /pkg/xfab/XKIT/xh018/cadence/v8_0/spectre/v8_0_1/lpmos/models/mos/nesvti_m_6.scs
Reading file: 
        /pkg/xfab/XKIT/xh018/cadence/v8_0/spectre/v8_0_1/lpmos/models/mos/pesvt.scs
Reading file: 
        /pkg/xfab/XKIT/xh018/cadence/v8_0/spectre/v8_0_1/lpmos/models/mos/pesvt_5.scs
Reading file: 
        /pkg/xfab/XKIT/xh018/cadence/v8_0/spectre/v8_0_1/lpmos/models/mos/pesvti.scs
Reading file: 
        /pkg/xfab/XKIT/xh018/cadence/v8_0/spectre/v8_0_1/lpmos/models/mos/pesvti_5.scs
Reading file: 
        /pkg/xfab/XKIT/xh018/cadence/v8_0/spectre/v8_0_1/lpmos/models/mos/pesvti_m_5.scs
Reading file: 
        /pkg/xfab/XKIT/xh018/cadence/v8_0/spectre/v8_0_1/lpmos/models/mos/nhvd.scs
Reading file: 
        /pkg/xfab/XKIT/xh018/cadence/v8_0/spectre/v8_0_1/lpmos/models/mos/nhvd_bjt.scs
Reading file: 
        /pkg/xfab/XKIT/xh018/cadence/v8_0/spectre/v8_0_1/lpmos/models/mos/nhhvd.scs
Reading file: 
        /pkg/xfab/XKIT/xh018/cadence/v8_0/spectre/v8_0_1/lpmos/models/mos/nhhvd_bjt.scs
Reading file: 
        /pkg/xfab/XKIT/xh018/cadence/v8_0/spectre/v8_0_1/lpmos/photo.scs
Reading file: 
        /pkg/xfab/XKIT/xh018/cadence/v8_0/spectre/v8_0_1/lpmos/models/photo/tm_pho.scs
Reading file: 
        /pkg/xfab/XKIT/xh018/cadence/v8_0/spectre/v8_0_1/lpmos/models/photo/dphoa.scs
Reading file: 
        /pkg/xfab/XKIT/xh018/cadence/v8_0/spectre/v8_0_1/lpmos/models/photo/dpho.va
Reading link: 
        /pkg/cadence/installs/XCELIUM1803/tools.lnx86/spectre/etc/ahdl/constants.h
Reading file: 
        /pkg/cadence/installs/XCELIUM1803/tools.lnx86/spectre/etc/ahdl/constants.vams
Reading link: 
        /pkg/cadence/installs/XCELIUM1803/tools.lnx86/spectre/etc/ahdl/discipline.h
Reading file: 
        /pkg/cadence/installs/XCELIUM1803/tools.lnx86/spectre/etc/ahdl/disciplines.vams
Reading file: 
        /pkg/xfab/XKIT/xh018/cadence/v8_0/spectre/v8_0_1/lpmos/models/photo/dphob.scs
Reading file: 
        /pkg/xfab/XKIT/xh018/cadence/v8_0/spectre/v8_0_1/lpmos/models/photo/dphoc.scs
Reading file: 
        /pkg/xfab/XKIT/xh018/cadence/v8_0/spectre/v8_0_1/lpmos/models/photo/iphoto_uv.va
Reading file: 
        /pkg/xfab/XKIT/xh018/cadence/v8_0/spectre/v8_0_1/lpmos/models/photo/dphoc_cat.scs
Reading file: 
        /pkg/xfab/XKIT/xh018/cadence/v8_0/spectre/v8_0_1/lpmos/models/photo/dphoc0.scs
Reading file: 
        /pkg/xfab/XKIT/xh018/cadence/v8_0/spectre/v8_0_1/lpmos/models/photo/dphoc0_cat.scs
Reading file: 
        /pkg/xfab/XKIT/xh018/cadence/v8_0/spectre/v8_0_1/lpmos/models/photo/dphocfp.scs
Reading file: 
        /pkg/xfab/XKIT/xh018/cadence/v8_0/spectre/v8_0_1/lpmos/models/photo/dphocfp_cat.scs
Reading file: 
        /pkg/xfab/XKIT/xh018/cadence/v8_0/spectre/v8_0_1/lpmos/models/photo/dphod.scs
Reading file: 
        /pkg/xfab/XKIT/xh018/cadence/v8_0/spectre/v8_0_1/lpmos/models/photo/dphod_an1.scs
Reading file: 
        /pkg/xfab/XKIT/xh018/cadence/v8_0/spectre/v8_0_1/lpmos/models/photo/dphod_an2.scs
Reading file: 
        /pkg/xfab/XKIT/xh018/cadence/v8_0/spectre/v8_0_1/lpmos/models/photo/dphod0.scs
Reading file: 
        /pkg/xfab/XKIT/xh018/cadence/v8_0/spectre/v8_0_1/lpmos/models/photo/dphod0_an1.scs
Reading file: 
        /pkg/xfab/XKIT/xh018/cadence/v8_0/spectre/v8_0_1/lpmos/models/photo/dphod0_an2.scs
Reading file: 
        /pkg/xfab/XKIT/xh018/cadence/v8_0/spectre/v8_0_1/lpmos/models/photo/dphodfp.scs
Reading file: 
        /pkg/xfab/XKIT/xh018/cadence/v8_0/spectre/v8_0_1/lpmos/models/photo/dphodfp_an1.scs
Reading file: 
        /pkg/xfab/XKIT/xh018/cadence/v8_0/spectre/v8_0_1/lpmos/models/photo/dphodfp_an2.scs
Reading file: 
        /pkg/xfab/XKIT/xh018/cadence/v8_0/spectre/v8_0_1/lpmos/models/photo/dspada.scs
Reading file: 
        /pkg/xfab/XKIT/xh018/cadence/v8_0/spectre/v8_0_1/lpmos/models/photo/ispad.va
Reading file: 
        /pkg/xfab/XKIT/xh018/cadence/v8_0/spectre/v8_0_1/lpmos/models/photo/dspada_cat.scs
Reading file: 
        /pkg/xfab/XKIT/xh018/cadence/v8_0/spectre/v8_0_1/lpmos/models/photo/dspada0.scs
Reading file: 
        /pkg/xfab/XKIT/xh018/cadence/v8_0/spectre/v8_0_1/lpmos/models/photo/dapda.scs
Reading file: 
        /pkg/xfab/XKIT/xh018/cadence/v8_0/spectre/v8_0_1/lpmos/models/photo/iphoto_apd.va
Reading file: 
        /pkg/xfab/XKIT/xh018/cadence/v8_0/spectre/v8_0_1/lpmos/models/photo/dapda_cat.scs
Reading file: 
        /pkg/xfab/XKIT/xh018/cadence/v8_0/spectre/v8_0_1/lpmos/models/photo/dapda0.scs
Reading file:  /pkg/xfab/XKIT/xh018/cadence/v8_0/spectre/v8_0_1/lpmos/res.scs
Reading file: 
        /pkg/xfab/XKIT/xh018/cadence/v8_0/spectre/v8_0_1/lpmos/models/res/tm_res.scs
Reading file: 
        /pkg/xfab/XKIT/xh018/cadence/v8_0/spectre/v8_0_1/lpmos/models/res/rdn.scs
Reading file: 
        /pkg/xfab/XKIT/xh018/cadence/v8_0/spectre/v8_0_1/lpmos/models/res/rdn_esd.scs
Reading file: 
        /pkg/xfab/XKIT/xh018/cadence/v8_0/spectre/v8_0_1/lpmos/models/res/rdp.scs
Reading file: 
        /pkg/xfab/XKIT/xh018/cadence/v8_0/spectre/v8_0_1/lpmos/models/res/rdp_io.scs
Reading file: 
        /pkg/xfab/XKIT/xh018/cadence/v8_0/spectre/v8_0_1/lpmos/models/res/rdp_esd.scs
Reading file: 
        /pkg/xfab/XKIT/xh018/cadence/v8_0/spectre/v8_0_1/lpmos/models/res/rnw.scs
Reading file: 
        /pkg/xfab/XKIT/xh018/cadence/v8_0/spectre/v8_0_1/lpmos/models/res/rnw_scr.scs
Reading file: 
        /pkg/xfab/XKIT/xh018/cadence/v8_0/spectre/v8_0_1/lpmos/models/res/rdn3.scs
Reading file: 
        /pkg/xfab/XKIT/xh018/cadence/v8_0/spectre/v8_0_1/lpmos/models/res/rdp3.scs
Reading file: 
        /pkg/xfab/XKIT/xh018/cadence/v8_0/spectre/v8_0_1/lpmos/models/res/rnw3.scs
Reading file: 
        /pkg/xfab/XKIT/xh018/cadence/v8_0/spectre/v8_0_1/lpmos/models/res/rnw3_scr.scs
Reading file: 
        /pkg/xfab/XKIT/xh018/cadence/v8_0/spectre/v8_0_1/lpmos/models/res/rdnwmv.scs
Reading file: 
        /pkg/xfab/XKIT/xh018/cadence/v8_0/spectre/v8_0_1/lpmos/models/res/rnp1.scs
Reading file: 
        /pkg/xfab/XKIT/xh018/cadence/v8_0/spectre/v8_0_1/lpmos/models/res/rnp1_3.scs
Reading file: 
        /pkg/xfab/XKIT/xh018/cadence/v8_0/spectre/v8_0_1/lpmos/models/res/rpp1.scs
Reading file: 
        /pkg/xfab/XKIT/xh018/cadence/v8_0/spectre/v8_0_1/lpmos/models/res/rpp1_3.scs
Reading file: 
        /pkg/xfab/XKIT/xh018/cadence/v8_0/spectre/v8_0_1/lpmos/models/res/rpp1s.scs
Reading file: 
        /pkg/xfab/XKIT/xh018/cadence/v8_0/spectre/v8_0_1/lpmos/models/res/rpp1s_3.scs
Reading file: 
        /pkg/xfab/XKIT/xh018/cadence/v8_0/spectre/v8_0_1/lpmos/models/res/rnp1h.scs
Reading file: 
        /pkg/xfab/XKIT/xh018/cadence/v8_0/spectre/v8_0_1/lpmos/models/res/rnp1h_3.scs
Reading file: 
        /pkg/xfab/XKIT/xh018/cadence/v8_0/spectre/v8_0_1/lpmos/models/res/rpp1k1.scs
Reading file: 
        /pkg/xfab/XKIT/xh018/cadence/v8_0/spectre/v8_0_1/lpmos/models/res/rpp1k1_3.scs
Reading file: 
        /pkg/xfab/XKIT/xh018/cadence/v8_0/spectre/v8_0_1/lpmos/models/res/rctdn.scs
Reading file: 
        /pkg/xfab/XKIT/xh018/cadence/v8_0/spectre/v8_0_1/lpmos/models/res/rctdp.scs
Reading file: 
        /pkg/xfab/XKIT/xh018/cadence/v8_0/spectre/v8_0_1/lpmos/models/res/rctp1.scs
Reading file: 
        /pkg/xfab/XKIT/xh018/cadence/v8_0/spectre/v8_0_1/lpmos/models/res/rsildn.scs
Reading file: 
        /pkg/xfab/XKIT/xh018/cadence/v8_0/spectre/v8_0_1/lpmos/models/res/rsildp.scs
Reading file: 
        /pkg/xfab/XKIT/xh018/cadence/v8_0/spectre/v8_0_1/lpmos/models/res/rsilnp1.scs
Reading file: 
        /pkg/xfab/XKIT/xh018/cadence/v8_0/spectre/v8_0_1/lpmos/models/res/rsilpp1.scs
Reading file: 
        /pkg/xfab/XKIT/xh018/cadence/v8_0/spectre/v8_0_1/lpmos/models/res/rsbdn.scs
Reading file: 
        /pkg/xfab/XKIT/xh018/cadence/v8_0/spectre/v8_0_1/lpmos/models/res/rsbdp.scs
Reading file: 
        /pkg/xfab/XKIT/xh018/cadence/v8_0/spectre/v8_0_1/lpmos/models/res/rsbdn3.scs
Reading file: 
        /pkg/xfab/XKIT/xh018/cadence/v8_0/spectre/v8_0_1/lpmos/models/res/rsbdp3.scs
Reading file: 
        /pkg/xfab/XKIT/xh018/cadence/v8_0/spectre/v8_0_1/lpmos/models/res/rsbnp1.scs
Reading file: 
        /pkg/xfab/XKIT/xh018/cadence/v8_0/spectre/v8_0_1/lpmos/models/res/rsbpp1.scs
Reading file: 
        /pkg/xfab/XKIT/xh018/cadence/v8_0/spectre/v8_0_1/lpmos/models/res/rsbpp1k1.scs
Reading file: 
        /pkg/xfab/XKIT/xh018/cadence/v8_0/spectre/v8_0_1/lpmos/models/res/rm1.scs
Reading file: 
        /pkg/xfab/XKIT/xh018/cadence/v8_0/spectre/v8_0_1/lpmos/models/res/rm2.scs
Reading file: 
        /pkg/xfab/XKIT/xh018/cadence/v8_0/spectre/v8_0_1/lpmos/models/res/rm3.scs
Reading file: 
        /pkg/xfab/XKIT/xh018/cadence/v8_0/spectre/v8_0_1/lpmos/models/res/rm4.scs
Reading file: 
        /pkg/xfab/XKIT/xh018/cadence/v8_0/spectre/v8_0_1/lpmos/models/res/rm5.scs
Reading file: 
        /pkg/xfab/XKIT/xh018/cadence/v8_0/spectre/v8_0_1/lpmos/models/res/rmtp.scs
Reading file: 
        /pkg/xfab/XKIT/xh018/cadence/v8_0/spectre/v8_0_1/lpmos/models/res/rmtpl.scs
Reading file: 
        /pkg/xfab/XKIT/xh018/cadence/v8_0/spectre/v8_0_1/lpmos/models/res/pfuse.scs
Reading file: 
        /pkg/xfab/XKIT/xh018/cadence/v8_0/spectre/v8_0_1/lpmos/models/res/s_res.scs
Reading file: 
        /home/ykhuang/research/Sim/Sim_StimulusArtifact/ams/config/netlist/amsControlSpectre.scs
Reading file: 
        /home/ykhuang/research/Sim/Sim_StimulusArtifact/ams/config/netlist/.amsbind.scs
Reading file: 
        /pkg/cadence/installs/XCELIUM1803/tools.lnx86/spectre/etc/configs/ams.cfg
Time for NDB Parsing: CPU = 575.334 ms, elapsed = 703.045 ms.
Time accumulated: CPU = 1.01801 s, elapsed = 703.05 ms.
Peak resident memory used = 103 Mbytes.

xcelium> source /pkg/cadence/installs/XCELIUM1803/tools/xcelium/files/xmsimrc
xcelium> 
xcelium> # This is the NC-SIM(R) probe command file
xcelium> # used in the AMS-ADE integration.
xcelium> 
xcelium> 
xcelium> #
xcelium> # Database settings
xcelium> #
xcelium> if { [info exists ::env(AMS_RESULTS_DIR) ] } { set AMS_RESULTS_DIR $env(AMS_RESULTS_DIR)} else {set AMS_RESULTS_DIR "../psf"}
../psf
xcelium> database -open ams_database -into ${AMS_RESULTS_DIR} -default
Created default SHM database ams_database
xcelium> 
xcelium> #
xcelium> # Probe settings
xcelium> #
xcelium> probe -create -emptyok -database ams_database {Sim_StimulusArtifact.ANO}
Created probe 1
xcelium> probe -create -emptyok -database ams_database {Sim_StimulusArtifact.CAT}
Created probe 2
xcelium> probe -create -emptyok -database ams_database {Sim_StimulusArtifact.DIS}
Created probe 3
xcelium> probe -create -emptyok -database ams_database {Sim_StimulusArtifact.Vinp}
Created probe 4
xcelium> probe -create -emptyok -database ams_database {Sim_StimulusArtifact.Vout}
Created probe 5
xcelium> probe -create -emptyok -database ams_database {Sim_StimulusArtifact.net017}
Created probe 6
xcelium> probe -create -emptyok -database ams_database {Sim_StimulusArtifact.net016}
Created probe 7
xcelium> probe -create -emptyok -database ams_database {Sim_StimulusArtifact.Vctrl}
Created probe 8
xcelium> probe -create -emptyok -database ams_database {Sim_StimulusArtifact.net09}
Created probe 9
xcelium> probe -create -emptyok -database ams_database -flow {Sim_StimulusArtifact.R4.1}
Created probe 10
xcelium> 
xcelium> run

Time for Elaboration: CPU = 170.03 ms, elapsed = 201.438 ms.
Time accumulated: CPU = 1.18821 s, elapsed = 904.652 ms.
Peak resident memory used = 127 Mbytes.


Warning from spectre during hierarchy flattening.
    WARNING (SPECTRE-17101): The value 'psf' specified using the
        'checklimitdest' option will no longer be supported in future
        releases.



Warning from spectre during hierarchy flattening.
    WARNING (SPECTRE-8527): There are some nodes and instances removed from the
        netlist topology check. Check the circuit and correct the topology. Or
        use preserve_inst to keep them if necessary.

***********************************************
  Total removed instances 3 ( dangling 3, terminals connected together 0)  

Warning from spectre during hierarchy flattening.
    WARNING (SPECTRE-8532): Found dangling isource Sim_StimulusArtifact.I5,
        which can affect the circuit behavior. Check the circuit topology and
        fix it before running the simulation.
    WARNING (SPECTRE-8529): Dangling instance. Sim_StimulusArtifact.V18 is
        removed.
    WARNING (SPECTRE-8529): Dangling instance. Sim_StimulusArtifact.V14 is
        removed.


  Total removed nodes 3 ( dangling nodes 3, floating nodes 0 )

Warning from spectre during hierarchy flattening.
    WARNING (SPECTRE-8530): Dangling node. Sim_StimulusArtifact.Vctrl_inv is
        removed.
    WARNING (SPECTRE-8530): Dangling node. Sim_StimulusArtifact.Vddd is
        removed.
    WARNING (SPECTRE-8530): Dangling node. Sim_StimulusArtifact.net4 is
        removed.
    WARNING (SPECTRE-8531): Floating node. Sim_StimulusArtifact.I0__ANO__7__0
        is removed.
    WARNING (SPECTRE-8531): Floating node. Sim_StimulusArtifact.I0__CAT__8__0
        is removed.
    WARNING (SPECTRE-8531): Floating node.
        Sim_StimulusArtifact.I0___dUmmY_pORt_0_ is removed.

***********************************************
Time for EDB Visiting: CPU = 2.877 ms, elapsed = 2.87795 ms.
Time accumulated: CPU = 1.19126 s, elapsed = 907.702 ms.
Peak resident memory used = 128 Mbytes.


Notice from spectre during topology check.
    No connections to node `Sim_StimulusArtifact.I0__Mag__11__0'.
    No connections to node `Sim_StimulusArtifact.I0__Mag__11__1'.
    No connections to node `Sim_StimulusArtifact.I0__Mag__11__2'.
    No connections to node `Sim_StimulusArtifact.I0__Mag__11__3'.
    No connections to node `Sim_StimulusArtifact.I0__Mag__11__4'.
        Further occurrences of this notice will be suppressed (except in log
        file).
    Only one connection to the following 4 nodes:
        Sim_StimulusArtifact.DIS
        Sim_StimulusArtifact.Vout
        Sim_StimulusArtifact.net018
        Sim_StimulusArtifact.net019
    No DC path from node `Sim_StimulusArtifact.net019' to ground, Gmin
        installed to provide path.
    No DC path from node `Sim_StimulusArtifact.I0__Mag__11__0' to ground, Gmin
        installed to provide path.
    No DC path from node `Sim_StimulusArtifact.I0__Mag__11__1' to ground, Gmin
        installed to provide path.
    No DC path from node `Sim_StimulusArtifact.I0__Mag__11__2' to ground, Gmin
        installed to provide path.
    No DC path from node `Sim_StimulusArtifact.I0__Mag__11__3' to ground, Gmin
        installed to provide path.
        Further occurrences of this notice will be suppressed (except in log
        file).

Notice from spectre during initial setup.
    Multithreading is disabled due to the size of the design being too small.

Global user options:
      addflowsuffix = yes
        dotprobefmt = hier
               temp = 27
            vabstol = 1e-06
            iabstol = 1e-12
           homotopy = 7
              limit = delta
               gmin = 1e-12
             rforce = 1
           maxnotes = 5
           maxwarns = 5
             digits = 5
             pivrel = 0.001
     checklimitdest = psf
             rawfmt = sst2
               save = selected
               tnom = 27
              scale = 1
             scalem = 1
             reltol = 0.0001

Scoped user options:

Circuit inventory:
              nodes 49
          capacitor 3     
connectLib__E2L_2__module__0x10000001_behavioral 11    
EMG_Model__BPF_EMG__verilogams__0x10000001_behavioral 1     
EMG_Model__IA_EMG_Ideal__verilogams__0x10000001_behavioral 1     
EMG_Model__PGA_EMG__verilogams__0x10000001_behavioral 1     
            isource 2     
              relay 1     
           resistor 6     
Stimulator_Model__Current_Mirror__verilogams__0x10000001_behavioral 1     
Stimulator_Model__Current_Source__verilogams__0x10000001_behavioral 1     
Stimulator_Model__H_Bridge__verilogams__0x10000001_behavioral 1     
            vsource 19    

Analysis and control statement inventory:
               info 4     
               tran 1     

Output statements:
             .probe 0     
           .measure 0     
               save 10    


Notice from spectre during initial setup.
    3 vsources are short because their absolute value is less than or equal to
        'vabsshort'.
    Fast APS Enabled.
    7 notices suppressed.

Time for parsing: CPU = 4.08 ms, elapsed = 8.68082 ms.
Time accumulated: CPU = 1.19548 s, elapsed = 916.519 ms.
Peak resident memory used = 129 Mbytes.

~~~~~~~~~~~~~~~~~~~~~~
Pre-Simulation Summary
~~~~~~~~~~~~~~~~~~~~~~
~~~~~~~~~~~~~~~~~~~~~~

************************************************
Transient Analysis `tran': time = (0 s -> 10 ms)
************************************************
Trying `homotopy = gmin' for initial conditions.Trying `homotopy = gmin' for initial conditions.DC simulation time: CPU = 19.461 ms, elapsed = 19.443 ms.
Important parameter values:
    start = 0 s
    outputstart = 0 s
    stop = 10 ms
    step = 10 us
    maxstep = 200 us
    ic = all
    useprevic = no
    skipdc = no
    reltol = 1e-03
    abstol(V) = 1 uV
    abstol(I) = 1 pA
    temp = 27 C
    tnom = 27 C
    tempeffects = all
    errpreset = liberal
    method = trapgear2
    lteratio = 3.5
    relref = sigglobal
    cmin = 0 F
    gmin = 1 pS
    rabsshort = 1 mOhm
    compression = wildcardonly


Notice from spectre during transient analysis `tran'.
    Multithreading is disabled due to the size of the design being too small.


Output and IC/nodeset summary:
                 save   1       (current)
                 save   9       (voltage)


Warning from spectre at time = 10 us during transient analysis `tran'.
    WARNING (SPECTRE-16780): LTE tolerance was temporarily relaxed to step over
        a discontinuity in the signal: Sim_StimulusArtifact.net2.
    WARNING (SPECTRE-16881): Detected possible convergence difficulties which
        might be related to Verilog-A models. Use the command-line option
        '-ahdllint=warn' to check the Verilog-A modeling issues.
Warning from spectre at time = 10 us during transient analysis `tran'.
    WARNING (SPECTRE-16191): Minimum time step used.  Solution might be in
        error.

Notice from spectre at time = 210 us during transient analysis `tran'.
    Newton iteration fails to converge at time = 210 us step = 20.0035 as.
        Disaster recovery algorithm is enabled to search for a converged
        solution.

Notice from spectre at time = 210 us during transient analysis `tran'.
    Newton iteration fails to converge at time = 210 us step = 20.0035 as.
        Disaster recovery algorithm is enabled to search for a converged
        solution.

Notice from spectre at time = 210 us during transient analysis `tran'.
    Newton iteration fails to converge at time = 210 us step = 20.0035 as.
        Disaster recovery algorithm is enabled to search for a converged
        solution.

Notice from spectre at time = 210 us during transient analysis `tran'.
    Newton iteration fails to converge at time = 210 us step = 20.0035 as.
        Disaster recovery algorithm is enabled to search for a converged
        solution.
Warning from spectre at time = 220 us during transient analysis `tran'.
    WARNING (SPECTRE-16780): LTE tolerance was temporarily relaxed to step over
        a discontinuity in the signal: Sim_StimulusArtifact.net1.
    WARNING (SPECTRE-16881): Detected possible convergence difficulties which
        might be related to Verilog-A models. Use the command-line option
        '-ahdllint=warn' to check the Verilog-A modeling issues.
Warning from spectre at time = 220 us during transient analysis `tran'.
    WARNING (SPECTRE-16191): Minimum time step used.  Solution might be in
        error.

    tran: time = 251.2 us    (2.51 %), step = 11.45 us     (114 m%)

Notice from spectre at time = 420 us during transient analysis `tran'.
    Newton iteration fails to converge at time = 420 us step = 20.0035 as.
        Disaster recovery algorithm is enabled to search for a converged
        solution.
        Further occurrences of this notice will be suppressed (except in log
        file).

Warning from spectre at time = 460 us during transient analysis `tran'.
    WARNING (SPECTRE-16780): LTE tolerance was temporarily relaxed to step over
        a discontinuity in the signal: Sim_StimulusArtifact.net2.
    WARNING (SPECTRE-16881): Detected possible convergence difficulties which
        might be related to Verilog-A models. Use the command-line option
        '-ahdllint=warn' to check the Verilog-A modeling issues.
Warning from spectre at time = 460 us during transient analysis `tran'.
    WARNING (SPECTRE-16191): Minimum time step used.  Solution might be in
        error.

Warning from spectre at time = 670 us during transient analysis `tran'.
    WARNING (SPECTRE-16780): LTE tolerance was temporarily relaxed to step over
        a discontinuity in the signal: Sim_StimulusArtifact.net1.
    WARNING (SPECTRE-16881): Detected possible convergence difficulties which
        might be related to Verilog-A models. Use the command-line option
        '-ahdllint=warn' to check the Verilog-A modeling issues.
Warning from spectre at time = 670 us during transient analysis `tran'.
    WARNING (SPECTRE-16191): Minimum time step used.  Solution might be in
        error.

    tran: time = 781.8 us    (7.82 %), step = 44.4 us      (444 m%)

Warning from spectre at time = 910 us during transient analysis `tran'.
    WARNING (SPECTRE-16780): LTE tolerance was temporarily relaxed to step over
        a discontinuity in the signal: Sim_StimulusArtifact.net2.
        Further occurrences of this warning will be suppressed.
    WARNING (SPECTRE-16881): Detected possible convergence difficulties which
        might be related to Verilog-A models. Use the command-line option
        '-ahdllint=warn' to check the Verilog-A modeling issues.
        Further occurrences of this warning will be suppressed.
Warning from spectre at time = 910 us during transient analysis `tran'.
    WARNING (SPECTRE-16191): Minimum time step used.  Solution might be in
        error.
        Further occurrences of this warning will be suppressed.
    tran: time = 1.277 ms    (12.8 %), step = 52.03 us     (520 m%)
    tran: time = 1.77 ms     (17.7 %), step = 45.01 us     (450 m%)
    tran: time = 2.25 ms     (22.5 %), step = 5.797 us      (58 m%)
    tran: time = 2.779 ms    (27.8 %), step = 30.92 us     (309 m%)
    tran: time = 3.283 ms    (32.8 %), step = 53.84 us     (538 m%)
    tran: time = 3.772 ms    (37.7 %), step = 38.39 us     (384 m%)
    tran: time = 4.26 ms     (42.6 %), step = 37.88 us     (379 m%)
    tran: time = 4.76 ms     (47.6 %), step = 15.81 us     (158 m%)
    tran: time = 5.293 ms    (52.9 %), step = 51.72 us     (517 m%)
    tran: time = 5.782 ms    (57.8 %), step = 37.54 us     (375 m%)
    tran: time = 6.27 ms     (62.7 %), step = 37.54 us     (375 m%)
    tran: time = 6.75 ms     (67.5 %), step = 6.08 us     (60.8 m%)
    tran: time = 7.25 ms     (72.5 %), step = 16.14 us     (161 m%)
    tran: time = 7.784 ms    (77.8 %), step = 51.66 us     (517 m%)
    tran: time = 8.272 ms    (82.7 %), step = 38.43 us     (384 m%)
    tran: time = 8.76 ms     (87.6 %), step = 38.43 us     (384 m%)
    tran: time = 9.258 ms    (92.6 %), step = 15.34 us     (153 m%)
    tran: time = 9.793 ms    (97.9 %), step = 53.86 us     (539 m%)

The analog simulator has reached stop time, please use `analog -stop <new stop time>' to extend the analog stop time.
Simulation stopped via transient analysis stoptime at time 10 MS
Memory Usage - Current physical: 135.0M, Current virtual: 611.6M
CPU Usage - 0.3s system + 4.0s user = 4.3s total (95.6% cpu)
xcelium> exit
Number of accepted tran steps =             18589

Maximum value achieved for any signal of each quantity: 
V: V(Sim_StimulusArtifact.I1.I0._cds_internal_IA_EMG_Ideal_:laplace0_state_0) =
        58.82 MV
I: I(Sim_StimulusArtifact.V1:p) = 10 mA
If your circuit contains signals of the same quantity that are vastly different
        in size (such as high voltage circuitry combined with low voltage
        control circuitry), you should consider specifying global option
        `bin_relref=yes'.

~~~~~~~~~~~~~~~~~~~~~~~~~~~~~~~~~
Post-Transient Simulation Summary
~~~~~~~~~~~~~~~~~~~~~~~~~~~~~~~~~
   -   The circuit contains signals of the voltage > 10V, consider to set
        highvoltage=yes to get better accuracy and convergence ability.
~~~~~~~~~~~~~~~~~~~~~~~~~~~~~~~~~


During simulation, the CPU load for active processors is :
        Spectre  0 (3.4 %)       1 (80.0 %)      4 (11.1 %)      6 (2.2 %)
                21 (18.2 %)     22 (13.8 %)     
        Other    8 (3.4 %)      10 (1.5 %)      13 (3.6 %)      25 (2.2 %)
                27 (3.2 %)      28 (4.4 %)      
Initial condition solution time: CPU = 19.605 ms, elapsed = 19.5892 ms.

**** AMSD: Mixed-Signal Activity Statistics ****
Number of A-to-D events:                     200
  Number of A-to-D events in IEs:            200
Number of D-to-A events:                      96
  Number of D-to-A events in IEs:              0
Number of VHDL-AMS Breaks:                     0

Intrinsic tran analysis time:    CPU = 3.31255 s, elapsed = 3.31585 s.
Total time required for tran analysis `tran': CPU = 3.33484 s, elapsed =
        3.34039 s.
Time accumulated: CPU = 4.55348 s, elapsed = 4.2855 s.
Peak resident memory used = 135 Mbytes.


Notice from spectre.
    98 notices suppressed.
    120 warnings suppressed.

finalTimeOP: writing operating point information to rawfile.

Opening the PSF file ../psf/finalTimeOP.info ...
modelParameter: writing model parameter values to rawfile.

Opening the PSF file ../psf/modelParameter.info ...
element: writing instance parameter values to rawfile.

Opening the PSF file ../psf/element.info ...
outputParameter: writing output parameter values to rawfile.

Opening the PSF file ../psf/outputParameter.info ...
Simulation complete via transient analysis stoptime at time 10 MS

Aggregate audit (6:47:59 PM, Wed Feb 10, 2021):
Time used: CPU = 4.57 s, elapsed = 4.31 s, util. = 106%.
Time spent in licensing: elapsed = 131 ms.
Peak memory used = 136 Mbytes.
Simulation started at: 6:47:55 PM, Wed Feb 10, 2021, ended at: 6:47:59 PM, Wed
        Feb 10, 2021, with elapsed time (wall clock): 4.31 s.
spectre completes with 0 errors, 26 warnings, and 24 notices.
xmsim: Memory Usage - Final: 135.8M, Peak: 135.9M, Peak virtual: 611.6M
xmsim: CPU Usage - 0.4s system + 4.1s user = 4.5s total (4.6s, 97.8% cpu)
