
Spectre (R) Circuit Simulator
Version 17.1.0.433.isr9 64bit -- 5 Nov 2018
Copyright (C) 1989-2018 Cadence Design Systems, Inc. All rights reserved worldwide. Cadence and Spectre are registered trademarks of Cadence Design Systems, Inc. All others are the property of their respective holders.

Includes RSA BSAFE(R) Cryptographic or Security Protocol Software from RSA Security, Inc.

User: ykhuang   Host: s2424   HostID: ED824314   PID: 12902
Memory  available: 50.2130 GB  physical: 67.2863 GB
Linux   : CentOS Linux release 7.9.2009 (Core)
CPU Type: Intel(R) Xeon(R) CPU E5-2630 v3 @ 2.40GHz
        Socket: Processors [Frequency] (Hyperthreaded Processor)
        0:       0 [1200.0] ( 16 ),  1 [1254.8] ( 17 ),  2 [1233.0] ( 18 )
                 3 [1222.3] ( 19 ),  4 [1200.0] ( 20 ),  5 [1200.6] ( 21 )
                 6 [1204.0] ( 22 ),  7 [1200.0] ( 23 )
        1:       8 [1796.8] ( 24 ),  9 [1471.9] ( 25 ), 10 [1244.2] ( 26 )
                11 [1200.0] ( 27 ), 12 [1200.0] ( 28 ), 13 [1200.0] ( 29 )
                14 [1200.0] ( 30 ), 15 [1200.1] ( 31 )
        
System load averages (1min, 5min, 15min) : 1.7 %, 1.3 %, 0.7 %
Hyperthreading is enabled


Simulating `/home/ykhuang/research/Sim/TB_CurrentMirror/ams/config/netlist/.mapi//xcelium.d/AMSD/ams_spice_in/./.amsspice_pre.ckt' on s2424 at 3:02:22 PM, Mon Mar 22, 2021 (process id: 12902).
Current working directory: /home/ykhuang/research/Sim/TB_CurrentMirror/ams/config/netlist
Environment variable:
    SPECTRE_DEFAULTS=
Command line:
    amsprimtool  \
        /home/ykhuang/research/Sim/TB_CurrentMirror/ams/config/netlist/.mapi//xcelium.d/AMSD/ams_spice_in/./.amsspice_pre.ckt  \
        -noraw -va,amsspice_pre -ahdllibdir  \
        /home/ykhuang/research/Sim/TB_CurrentMirror/ams/config/netlist/.mapi//xcelium.d/AMSD/ams_spice_in/ahdlSimDB  \
        =log  \
        /home/ykhuang/research/Sim/TB_CurrentMirror/ams/config/netlist/.mapi//xcelium.d/AMSD/ams_spice_in/./.amsspice_pre.ckt.log  \
        -token  \
        0001AF26C83A239465DFBB2CC00A229E73C4B63DFD3B60CB2080E838B83335D47FDDA126F37837D471DEBA2AFC31339371C2EE04803012A43FE4BF21DA0424B675DEA87DE5233196629FA534F774399C7ED6A120B126238F7CD9B535ED3D7FD460D9A424F8713DD579C5BA34A6727F9A43F48727E32A339E60D9E83D9C347E9A3E9FB22EE51035A479D3AE78E96E24DB73DBF861BD6031C321D4A83DCE88537F10B0A126F35737FB71DEA80F9E0E50FB24B0C4528E5D339A7CDFB374B06461CB648AA83DC30C50FB10B0C8654E50F39770E800005ED0

Loading /pkg/cadence/installs/XCELIUM1803/tools.lnx86/cmi/lib/64bit/5.0/libinfineon_sh.so ...
Loading /pkg/cadence/installs/XCELIUM1803/tools.lnx86/cmi/lib/64bit/5.0/libphilips_o_sh.so ...
Loading /pkg/cadence/installs/XCELIUM1803/tools.lnx86/cmi/lib/64bit/5.0/libphilips_sh.so ...
Loading /pkg/cadence/installs/XCELIUM1803/tools.lnx86/cmi/lib/64bit/5.0/libsparam_sh.so ...
Loading /pkg/cadence/installs/XCELIUM1803/tools.lnx86/cmi/lib/64bit/5.0/libstmodels_sh.so ...
Reading file:  /home/ykhuang/research/Sim/TB_CurrentMirror/ams/config/netlist/.mapi/xcelium.d/AMSD/ams_spice_in/.amsspice_pre.ckt
Reading file:  /pkg/cadence/installs/XCELIUM1803/tools.lnx86/spectre/etc/configs/mapsubckt.cfg
Reading file:  /pkg/cadence/installs/XCELIUM1803/tools.lnx86/spectre/etc/configs/spectre.cfg
Time for NDB Parsing: CPU = 125.271 ms, elapsed = 208.753 ms.
Time accumulated: CPU = 185.077 ms, elapsed = 208.764 ms.
Peak resident memory used = 48.4 Mbytes.

