
Spectre (R) Circuit Simulator
Version 17.1.0.433.isr9 64bit -- 5 Nov 2018
Copyright (C) 1989-2018 Cadence Design Systems, Inc. All rights reserved worldwide. Cadence and Spectre are registered trademarks of Cadence Design Systems, Inc. All others are the property of their respective holders.

Includes RSA BSAFE(R) Cryptographic or Security Protocol Software from RSA Security, Inc.

User: ykhuang   Host: s2424   HostID: ED824314   PID: 15360
Memory  available: 51.0130 GB  physical: 67.2863 GB
Linux   : CentOS Linux release 7.9.2009 (Core)
CPU Type: Intel(R) Xeon(R) CPU E5-2630 v3 @ 2.40GHz
        Socket: Processors [Frequency] (Hyperthreaded Processor)
        0:       0 [1213.0] ( 16 ),  1 [1202.8] ( 17 ),  2 [1255.1] ( 18 )
                 3 [1268.6] ( 19 ),  4 [1200.0] ( 20 ),  5 [1205.9] ( 21 )
                 6 [1200.0] ( 22 ),  7 [1200.1] ( 23 )
        1:       8 [1200.0] ( 24 ),  9 [1199.6] ( 25 ), 10 [1227.2] ( 26 )
                11 [1200.0] ( 27 ), 12 [1200.0] ( 28 ), 13 [1200.0] ( 29 )
                14 [1200.0] ( 30 ), 15 [1200.0] ( 31 )
        
System load averages (1min, 5min, 15min) : 0.1 %, 0.4 %, 0.5 %
Hyperthreading is enabled


Simulating `/home/ykhuang/research/Sim/TB_Digital_Stimulus_EMG_NMES/ams/config/netlist/.mapi//xcelium.d/AMSD/ams_spice_in/./.amsspice_pre.ckt' on s2424 at 10:34:33 PM, Mon Feb 15, 2021 (process id: 15360).
Current working directory: /home/ykhuang/research/Sim/TB_Digital_Stimulus_EMG_NMES/ams/config/netlist
Environment variable:
    SPECTRE_DEFAULTS=
Command line:
    amsprimtool  \
        /home/ykhuang/research/Sim/TB_Digital_Stimulus_EMG_NMES/ams/config/netlist/.mapi//xcelium.d/AMSD/ams_spice_in/./.amsspice_pre.ckt  \
        -noraw -va,amsspice_pre -ahdllibdir  \
        /home/ykhuang/research/Sim/TB_Digital_Stimulus_EMG_NMES/ams/config/netlist/.mapi//xcelium.d/AMSD/ams_spice_in/ahdlSimDB  \
        =log  \
        /home/ykhuang/research/Sim/TB_Digital_Stimulus_EMG_NMES/ams/config/netlist/.mapi//xcelium.d/AMSD/ams_spice_in/./.amsspice_pre.ckt.log  \
        -token  \
        0001AF26C83A239465DFBB2CC00A229E73C4B63DFD3B60CB2080E838B83335D47FDDA126F37837D471DEBA2AFC31339371C2EE04803012A43FE4BB35C50A3CA464D1B43CCB3B258865DCBA34FF3C1DBE4FFEBA7FDD7C3394639FEE34E62E358F3FDEF467EC343D9A3F9EFF71F839359768D3A13CC50411B6749FEA2FE10B0F887DC39431F37A3ED44FD9EB2FB063238B7DC3BD10E17135D560C2EF2BED6733CB2386FB1DDE0A50FB20B0A83DEEB8537F10B0A126F35737FB71DEA80F9E0E50FB24B0C4528E5D339A7CDFB374B06461CB648AA83DC30C50FB10B0C81705DBB81C709A0000670E

Loading /pkg/cadence/installs/XCELIUM1803/tools.lnx86/cmi/lib/64bit/5.0/libinfineon_sh.so ...
Loading /pkg/cadence/installs/XCELIUM1803/tools.lnx86/cmi/lib/64bit/5.0/libphilips_o_sh.so ...
Loading /pkg/cadence/installs/XCELIUM1803/tools.lnx86/cmi/lib/64bit/5.0/libphilips_sh.so ...
Loading /pkg/cadence/installs/XCELIUM1803/tools.lnx86/cmi/lib/64bit/5.0/libsparam_sh.so ...
Loading /pkg/cadence/installs/XCELIUM1803/tools.lnx86/cmi/lib/64bit/5.0/libstmodels_sh.so ...
Reading file:  /home/ykhuang/research/Sim/TB_Digital_Stimulus_EMG_NMES/ams/config/netlist/.mapi/xcelium.d/AMSD/ams_spice_in/.amsspice_pre.ckt
Reading file:  /pkg/cadence/installs/XCELIUM1803/tools.lnx86/spectre/etc/configs/mapsubckt.cfg
Reading file:  /pkg/cadence/installs/XCELIUM1803/tools.lnx86/spectre/etc/configs/spectre.cfg
Time for NDB Parsing: CPU = 125.866 ms, elapsed = 208.71 ms.
Time accumulated: CPU = 185.648 ms, elapsed = 208.72 ms.
Peak resident memory used = 48.4 Mbytes.

