
Spectre (R) Circuit Simulator
Version 17.1.0.433.isr9 64bit -- 5 Nov 2018
Copyright (C) 1989-2018 Cadence Design Systems, Inc. All rights reserved worldwide. Cadence and Spectre are registered trademarks of Cadence Design Systems, Inc. All others are the property of their respective holders.

Includes RSA BSAFE(R) Cryptographic or Security Protocol Software from RSA Security, Inc.

User: ykhuang   Host: s2424   HostID: ED824314   PID: 4266
Memory  available: 52.2876 GB  physical: 67.2863 GB
Linux   : CentOS Linux release 7.9.2009 (Core)
CPU Type: Intel(R) Xeon(R) CPU E5-2630 v3 @ 2.40GHz
        Socket: Processors [Frequency] (Hyperthreaded Processor)
        0:       0 [1199.9] ( 16 ),  1 [1200.4] ( 17 ),  2 [1200.1] ( 18 )
                 3 [1200.0] ( 19 ),  4 [1371.8] ( 20 ),  5 [1219.9] ( 21 )
                 6 [1200.1] ( 22 ),  7 [1200.0] ( 23 )
        1:       8 [1272.5] ( 24 ),  9 [1318.9] ( 25 ), 10 [1277.8] ( 26 )
                11 [1231.2] ( 27 ), 12 [1238.8] ( 28 ), 13 [1200.0] ( 29 )
                14 [1200.0] ( 30 ), 15 [1205.9] ( 31 )
        
System load averages (1min, 5min, 15min) : 0.9 %, 0.5 %, 0.2 %
Hyperthreading is enabled


Simulating `/home/ykhuang/research/Sim/EMG_NMES_TestBench/Sim_StimulusArtifact/adexl/results/data/Interactive.0/1/EMG_NMES_TestBench:Sim_StimulusArtifact:1/netlist/.mapi//xcelium.d/AMSD/ams_spice_in/./.amsspice_pre.ckt' on s2424 at 11:20:36 AM, Tue Feb 23, 2021 (process id: 4266).
Current working directory: /home/ykhuang/research/Sim/EMG_NMES_TestBench/Sim_StimulusArtifact/adexl/results/data/Interactive.0/1/EMG_NMES_TestBench:Sim_StimulusArtifact:1/netlist
Environment variable:
    SPECTRE_DEFAULTS=
Command line:
    amsprimtool  \
        /home/ykhuang/research/Sim/EMG_NMES_TestBench/Sim_StimulusArtifact/adexl/results/data/Interactive.0/1/EMG_NMES_TestBench:Sim_StimulusArtifact:1/netlist/.mapi//xcelium.d/AMSD/ams_spice_in/./.amsspice_pre.ckt  \
        -noraw -va,amsspice_pre -ahdllibdir  \
        /home/ykhuang/research/Sim/EMG_NMES_TestBench/Sim_StimulusArtifact/adexl/results/data/Interactive.0/1/EMG_NMES_TestBench:Sim_StimulusArtifact:1/netlist/.mapi//xcelium.d/AMSD/ams_spice_in/ahdlSimDB  \
        =log  \
        /home/ykhuang/research/Sim/EMG_NMES_TestBench/Sim_StimulusArtifact/adexl/results/data/Interactive.0/1/EMG_NMES_TestBench:Sim_StimulusArtifact:1/netlist/.mapi//xcelium.d/AMSD/ams_spice_in/./.amsspice_pre.ckt.log  \
        -token  \
        0001AF26C83A239465DFBB2CC00A229E73C4B63DFD3B60CB2080E838B83335D47FDDA126F37837D471DEBA2AFC31339371C2EE158F281DBC3FF5B627E617049E43EF843BF66738D47ED39616D738399643C49C3CEC39249251C2E428EF38349E3FD1E23CE03C259775C3E62DF86031D471C4AE39C726338F62D1FD3CB56561D4209FA12FED2215A85EFDB90CD706359564F2FB03D1070FA879DDA93DEA1423BA7CC5A038EB7224C171D3B234B560398864DCE720F03C39D471C0A731B72925967CD9CA2F877714D45DE3A812E532399863C0EE7DA74D7FD53F9EAB27EF34339E60D9F43BD9383B8F3ED3A139F43869CC2083983DDE98537F10B0A126F35737FB71DEA80F9E0E50FB24B0C4528E5D339A7CDFB374B06561CA648AA83DC30C50FB10B0C8093BCE8609708400008675

Loading /pkg/cadence/installs/XCELIUM1803/tools.lnx86/cmi/lib/64bit/5.0/libinfineon_sh.so ...
Loading /pkg/cadence/installs/XCELIUM1803/tools.lnx86/cmi/lib/64bit/5.0/libphilips_o_sh.so ...
Loading /pkg/cadence/installs/XCELIUM1803/tools.lnx86/cmi/lib/64bit/5.0/libphilips_sh.so ...
Loading /pkg/cadence/installs/XCELIUM1803/tools.lnx86/cmi/lib/64bit/5.0/libsparam_sh.so ...
Loading /pkg/cadence/installs/XCELIUM1803/tools.lnx86/cmi/lib/64bit/5.0/libstmodels_sh.so ...
Reading file:  /home/ykhuang/research/Sim/EMG_NMES_TestBench/Sim_StimulusArtifact/adexl/results/data/Interactive.0/1/EMG_NMES_TestBench:Sim_StimulusArtifact:1/netlist/.mapi/xcelium.d/AMSD/ams_spice_in/.amsspice_pre.ckt
Reading file:  /pkg/cadence/installs/XCELIUM1803/tools.lnx86/spectre/etc/configs/mapsubckt.cfg
Reading file:  /pkg/cadence/installs/XCELIUM1803/tools.lnx86/spectre/etc/configs/spectre.cfg
Time for NDB Parsing: CPU = 121.566 ms, elapsed = 203.46 ms.
Time accumulated: CPU = 184.022 ms, elapsed = 203.471 ms.
Peak resident memory used = 48.3 Mbytes.

